<?xml version="1.0" encoding="UTF-8"?>

<!-- generated on 2025-12-10 03:22:17.707739 by randomTrips.py v1_24_0+0000-b72eb3fabc8
<configuration>
    <net-file value="net.net.xml"/>
    <route-file value="routes_cng.rou.xml"/>
    <vtype-output value="cng"/>
    <seed value="2"/>
    <end value="600.0"/>
    <period value="0.8"/>
</configuration>
-->

<routes xmlns:xsi="http://www.w3.org/2001/XMLSchema-instance" xsi:noNamespaceSchemaLocation="http://sumo.dlr.de/xsd/routes_file.xsd">
    <trip id="0" depart="0.00" from="836372814" to="836275309"/>
    <trip id="1" depart="0.80" from="-1254815437" to="-188582607#0"/>
    <trip id="2" depart="1.60" from="832854934" to="696139662"/>
    <trip id="3" depart="2.40" from="384853611#0" to="-832572411#0"/>
    <trip id="4" depart="3.20" from="207880554#13" to="207897638#2"/>
    <trip id="5" depart="4.00" from="1349157156#0" to="-384853623#1"/>
    <trip id="6" depart="4.80" from="-835999034#0" to="-835804763#5"/>
    <trip id="7" depart="5.60" from="64400856#3" to="99052499#37"/>
    <trip id="8" depart="6.40" from="836275312" to="1255188179"/>
    <trip id="9" depart="7.20" from="-836064622#3" to="-828412309#0"/>
    <trip id="10" depart="8.00" from="-1210232466" to="-1169540831#0"/>
    <trip id="11" depart="8.80" from="-836378403" to="-832854939"/>
    <trip id="12" depart="9.60" from="-835639874#1" to="835791097#3"/>
    <trip id="13" depart="10.40" from="1152278968#0" to="1255918033"/>
    <trip id="14" depart="11.20" from="-676314774#1" to="-1169540817#0"/>
    <trip id="15" depart="12.00" from="-832557101" to="-35460609#9"/>
    <trip id="16" depart="12.80" from="1046062582" to="99052549#13"/>
    <trip id="17" depart="13.60" from="384853638" to="-385862975"/>
    <trip id="18" depart="14.40" from="835791097#15" to="828722203#0"/>
    <trip id="19" depart="15.20" from="676318033#0" to="835804749#0"/>
    <trip id="20" depart="16.00" from="753777244" to="828722161"/>
    <trip id="21" depart="16.80" from="-833823510#5" to="99029678#0"/>
    <trip id="22" depart="17.60" from="836392432#0" to="-384853640#1"/>
    <trip id="23" depart="18.40" from="725159707#0" to="64387507#0"/>
    <trip id="24" depart="19.20" from="-836321815" to="1230248003#3"/>
    <trip id="25" depart="20.00" from="-99047707#6" to="835999041#3"/>
    <trip id="26" depart="20.80" from="-99052529#2" to="832834694#0"/>
    <trip id="27" depart="21.60" from="-833823511" to="835667003#0"/>
    <trip id="28" depart="22.40" from="835799916#2" to="-99029701#0"/>
    <trip id="29" depart="23.20" from="1255916059#0" to="835992839#0"/>
    <trip id="30" depart="24.00" from="673263889#1" to="1052623204#0"/>
    <trip id="31" depart="24.80" from="-64384033#2" to="-833796922#0"/>
    <trip id="32" depart="25.60" from="47572742#16" to="-384853660"/>
    <trip id="33" depart="26.40" from="835804748" to="-828402748#1"/>
    <trip id="34" depart="27.20" from="835804765#0" to="-832588389#1"/>
    <trip id="35" depart="28.00" from="836378397#2" to="641906000#5"/>
    <trip id="36" depart="28.80" from="102309332#2" to="1203906302#2"/>
    <trip id="37" depart="29.60" from="35460672#0" to="188574993#1"/>
    <trip id="38" depart="30.40" from="-828749584#3" to="-667068898"/>
    <trip id="39" depart="31.20" from="1052623213#0" to="836059694#1"/>
    <trip id="40" depart="32.00" from="207901662#0" to="-1375776894#29"/>
    <trip id="41" depart="32.80" from="832563004#12" to="676314772#3"/>
    <trip id="42" depart="33.60" from="835804747#1" to="-567646048#6"/>
    <trip id="43" depart="34.40" from="696139694#0" to="-1255916061#6"/>
    <trip id="44" depart="35.20" from="384841791#2" to="-828722170#0"/>
    <trip id="45" depart="36.00" from="-64398264#5" to="835649883#1"/>
    <trip id="46" depart="36.80" from="-207880534#2" to="122087023#2"/>
    <trip id="47" depart="37.60" from="833836033#0" to="-750641941#0"/>
    <trip id="48" depart="38.40" from="-567646048#2" to="835662624"/>
    <trip id="49" depart="39.20" from="-835977004#0" to="64398264#2"/>
    <trip id="50" depart="40.00" from="-1169540850" to="-835649885#4"/>
    <trip id="51" depart="40.80" from="-384844775#2" to="384855647#0"/>
    <trip id="52" depart="41.60" from="-1275492804" to="836372806#1"/>
    <trip id="53" depart="42.40" from="-1153909092#0" to="676318028"/>
    <trip id="54" depart="43.20" from="-1152278959#1" to="-765913435#0"/>
    <trip id="55" depart="44.00" from="828749616#8" to="-384853617#0"/>
    <trip id="56" depart="44.80" from="-384855644#3" to="385864131#2"/>
    <trip id="57" depart="45.60" from="-835653933#3" to="-1230274180#1"/>
    <trip id="58" depart="46.40" from="99047739#13" to="-384844761#2"/>
    <trip id="59" depart="47.20" from="-1210234803" to="-834082653"/>
    <trip id="60" depart="48.00" from="207897645#1" to="696139695#3"/>
    <trip id="61" depart="48.80" from="-207891077#6" to="-833836036#0"/>
    <trip id="62" depart="49.60" from="-1169540841#1" to="-836683547"/>
    <trip id="63" depart="50.40" from="755060228#0" to="696139687#1"/>
    <trip id="64" depart="51.20" from="835804721#0" to="744797240"/>
    <trip id="65" depart="52.00" from="834082660" to="628760983#3"/>
    <trip id="66" depart="52.80" from="-836683546#0" to="-696139671#0"/>
    <trip id="67" depart="53.60" from="384842718#2" to="-832841200#0"/>
    <trip id="68" depart="54.40" from="-188578625#0" to="-836683539"/>
    <trip id="69" depart="55.20" from="835639869#1" to="-31338869#2"/>
    <trip id="70" depart="56.00" from="1375776894#15" to="-835804762#0"/>
    <trip id="71" depart="56.80" from="1080757453#7" to="-384842707#2"/>
    <trip id="72" depart="57.60" from="836382140#0" to="-768149598#5"/>
    <trip id="73" depart="58.40" from="207880554#14" to="-836064621#1"/>
    <trip id="74" depart="59.20" from="-232406465#0" to="-1255882988"/>
    <trip id="75" depart="60.00" from="-1201253946#3" to="-384853640#1"/>
    <trip id="76" depart="60.80" from="-1388420110#1" to="32067447#22"/>
    <trip id="77" depart="61.60" from="102309340#4" to="99029829"/>
    <trip id="78" depart="62.40" from="836059692#0" to="99052499#34"/>
    <trip id="79" depart="63.20" from="-676314764#0" to="-836392434#0"/>
    <trip id="80" depart="64.00" from="-696139693#5" to="188582607#1"/>
    <trip id="81" depart="64.80" from="207901663#11" to="828749543#3"/>
    <trip id="82" depart="65.60" from="627127644#0" to="-765965642#1"/>
    <trip id="83" depart="66.40" from="-835977004#1" to="122769184#15"/>
    <trip id="84" depart="67.20" from="-102309340#1" to="-122087024#0"/>
    <trip id="85" depart="68.00" from="-835804725#2" to="-207901664#0"/>
    <trip id="86" depart="68.80" from="673263889#1" to="-726094883#2"/>
    <trip id="87" depart="69.60" from="-188574995#0" to="-385862696#0"/>
    <trip id="88" depart="70.40" from="-676314761#0" to="-676314778#0"/>
    <trip id="89" depart="71.20" from="1139100125#1" to="-99047707#11"/>
    <trip id="90" depart="72.00" from="-828749568#2" to="35460464#2"/>
    <trip id="91" depart="72.80" from="-586237776#3" to="835804749#0"/>
    <trip id="92" depart="73.60" from="836392443#0" to="676318019#2"/>
    <trip id="93" depart="74.40" from="-836028515#1" to="1169540833#2"/>
    <trip id="94" depart="75.20" from="1342404711" to="-1255173432"/>
    <trip id="95" depart="76.00" from="-835804765#4" to="122769180#1"/>
    <trip id="96" depart="76.80" from="-384853656#1" to="-207880558#1"/>
    <trip id="97" depart="77.60" from="828749576" to="-835662619#1"/>
    <trip id="98" depart="78.40" from="1125443416#2" to="835994683#2"/>
    <trip id="99" depart="79.20" from="207891086#1" to="-828749595#0"/>
    <trip id="100" depart="80.00" from="99029824#1" to="-835703039"/>
    <trip id="101" depart="80.80" from="-1149522245#5" to="385850881#1"/>
    <trip id="102" depart="81.60" from="-188578616#0" to="-832572393#1"/>
    <trip id="103" depart="82.40" from="833791021" to="384855644#3"/>
    <trip id="104" depart="83.20" from="-1127729603#1" to="-836698653#1"/>
    <trip id="105" depart="84.00" from="-835804736#4" to="1052623195"/>
    <trip id="106" depart="84.80" from="-567646044#9" to="188574996#0"/>
    <trip id="107" depart="85.60" from="-1255918016" to="-828749568#0"/>
    <trip id="108" depart="86.40" from="-834101286" to="836059698#3"/>
    <trip id="109" depart="87.20" from="-1255918041" to="727442157#0"/>
    <trip id="110" depart="88.00" from="-835667012#1" to="-99047705#2"/>
    <trip id="111" depart="88.80" from="723381487#1" to="-835804768#1"/>
    <trip id="112" depart="89.60" from="-207897655#3" to="-207901684#1"/>
    <trip id="113" depart="90.40" from="-1274879769" to="833836023#1"/>
    <trip id="114" depart="91.20" from="30162691#6" to="836385306#2"/>
    <trip id="115" depart="92.00" from="385851127" to="-1169540820#0"/>
    <trip id="116" depart="92.80" from="384842713#0" to="778926295#1"/>
    <trip id="117" depart="93.60" from="673262235" to="1148488340#2"/>
    <trip id="118" depart="94.40" from="-833836023#1" to="-99029665#1"/>
    <trip id="119" depart="95.20" from="828749536#5" to="-828459736#3"/>
    <trip id="120" depart="96.00" from="1152278970#12" to="-99052549#8"/>
    <trip id="121" depart="96.80" from="836304922#0" to="828749584#3"/>
    <trip id="122" depart="97.60" from="-828722155" to="-696668030#1"/>
    <trip id="123" depart="98.40" from="-99047707#1" to="-768152261#1"/>
    <trip id="124" depart="99.20" from="-835992833#1" to="385085297#0"/>
    <trip id="125" depart="100.00" from="835992826#3" to="188574981#1"/>
    <trip id="126" depart="100.80" from="832557110#1" to="-207891077#9"/>
    <trip id="127" depart="101.60" from="-833830087" to="99052529#3"/>
    <trip id="128" depart="102.40" from="-32067447#26" to="-836059692#1"/>
    <trip id="129" depart="103.20" from="-1255870462" to="-207880508#2"/>
    <trip id="130" depart="104.00" from="835798073#1" to="99047724#7"/>
    <trip id="131" depart="104.80" from="33613813" to="-32067447#14"/>
    <trip id="132" depart="105.60" from="-828722152#1" to="-696668030#2"/>
    <trip id="133" depart="106.40" from="384853616#1" to="385085299#9"/>
    <trip id="134" depart="107.20" from="-836046076#0" to="122769171"/>
    <trip id="135" depart="108.00" from="-207880565#2" to="1254814548#1"/>
    <trip id="136" depart="108.80" from="836279119#0" to="744797241"/>
    <trip id="137" depart="109.60" from="-1388420113#0" to="1203906300#7"/>
    <trip id="138" depart="110.40" from="64384026#0" to="-766129905#4"/>
    <trip id="139" depart="111.20" from="835798067#0" to="-99029690#2"/>
    <trip id="140" depart="112.00" from="567646044#0" to="-835994683#1"/>
    <trip id="141" depart="112.80" from="99052499#4" to="828402724"/>
    <trip id="142" depart="113.60" from="1271694655#1" to="-384842711#3"/>
    <trip id="143" depart="114.40" from="-836059691#0" to="-1169540848#1"/>
    <trip id="144" depart="115.20" from="188574992#0" to="835666998#8"/>
    <trip id="145" depart="116.00" from="-384853652#2" to="1169540828#4"/>
    <trip id="146" depart="116.80" from="-99029670#0" to="-835994685#0"/>
    <trip id="147" depart="117.60" from="627705366#3" to="836059703"/>
    <trip id="148" depart="118.40" from="567646045#9" to="-99052499#3"/>
    <trip id="149" depart="119.20" from="836392432#1" to="-833823510#1"/>
    <trip id="150" depart="120.00" from="696139698#0" to="384844762#1"/>
    <trip id="151" depart="120.80" from="751509976#3" to="833836032#4"/>
    <trip id="152" depart="121.60" from="-64387507#4" to="207901668#21"/>
    <trip id="153" depart="122.40" from="-835798082#1" to="384853635#4"/>
    <trip id="154" depart="123.20" from="99029642" to="32067447#2"/>
    <trip id="155" depart="124.00" from="-1088370827" to="-99047707#13"/>
    <trip id="156" depart="124.80" from="641906002#0" to="835667005"/>
    <trip id="157" depart="125.60" from="35460609#6" to="832551873#2"/>
    <trip id="158" depart="126.40" from="-1139100126" to="836077321#0"/>
    <trip id="159" depart="127.20" from="676314767#4" to="207897636#7"/>
    <trip id="160" depart="128.00" from="835804737#2" to="835667015#1"/>
    <trip id="161" depart="128.80" from="-188574996#6" to="832551872#0"/>
    <trip id="162" depart="129.60" from="755060229#0" to="-64384022#3"/>
    <trip id="163" depart="130.40" from="696139693#4" to="188574982#2"/>
    <trip id="164" depart="131.20" from="-385085299#10" to="828749584#2"/>
    <trip id="165" depart="132.00" from="-207901681#5" to="207897659#4"/>
    <trip id="166" depart="132.80" from="-836034458#1" to="-760495126#0"/>
    <trip id="167" depart="133.60" from="1255881489" to="-99047724#7"/>
    <trip id="168" depart="134.40" from="-489009457#3" to="836693684"/>
    <trip id="169" depart="135.20" from="-1255916068#1" to="-102309333#8"/>
    <trip id="170" depart="136.00" from="-99029690#2" to="833770319#0"/>
    <trip id="171" depart="136.80" from="384842711#2" to="726094883#2"/>
    <trip id="172" depart="137.60" from="-99029687#2" to="384855654#0"/>
    <trip id="173" depart="138.40" from="-832588379" to="-828402738#2"/>
    <trip id="174" depart="139.20" from="-99052555#4" to="-1169540831#1"/>
    <trip id="175" depart="140.00" from="-1272999497" to="726030199#1"/>
    <trip id="176" depart="140.80" from="-384853611#2" to="723373512#3"/>
    <trip id="177" depart="141.60" from="828402738#2" to="-835994683#4"/>
    <trip id="178" depart="142.40" from="384853641#0" to="828459736#5"/>
    <trip id="179" depart="143.20" from="834087314#1" to="-35460462#0"/>
    <trip id="180" depart="144.00" from="-384842709#4" to="-835798099#0"/>
    <trip id="181" depart="144.80" from="-836378398" to="-828749615#1"/>
    <trip id="182" depart="145.60" from="-1052623228" to="1255916066#3"/>
    <trip id="183" depart="146.40" from="836693682#0" to="-835666995"/>
    <trip id="184" depart="147.20" from="1203906300#0" to="-835799916#2"/>
    <trip id="185" depart="148.00" from="-836059698#3" to="834163091#0"/>
    <trip id="186" depart="148.80" from="-828749555#0" to="384841848#0"/>
    <trip id="187" depart="149.60" from="-99029673#7" to="1253517072"/>
    <trip id="188" depart="150.40" from="835957178" to="-1388420101#1"/>
    <trip id="189" depart="151.20" from="832572396#1" to="-832563004#9"/>
    <trip id="190" depart="152.00" from="324810886#0" to="828722195#1"/>
    <trip id="191" depart="152.80" from="384841823#4" to="-835804762#0"/>
    <trip id="192" depart="153.60" from="833791022#0" to="-207880554#8"/>
    <trip id="193" depart="154.40" from="207901678#0" to="-835804752"/>
    <trip id="194" depart="155.20" from="1169540818#1" to="833836026#0"/>
    <trip id="195" depart="156.00" from="828749528" to="232406459#1"/>
    <trip id="196" depart="156.80" from="-828749545#1" to="-719628043#1"/>
    <trip id="197" depart="157.60" from="-836288690" to="-719628039#0"/>
    <trip id="198" depart="158.40" from="-760495124#3" to="836382130"/>
    <trip id="199" depart="159.20" from="-207880565#1" to="832557109#1"/>
    <trip id="200" depart="160.00" from="-835639867#1" to="-835661823"/>
    <trip id="201" depart="160.80" from="-828749606#3" to="-1388420102#6"/>
    <trip id="202" depart="161.60" from="-836288688#1" to="-384855644#3"/>
    <trip id="203" depart="162.40" from="-836059696#1" to="-828749604#0"/>
    <trip id="204" depart="163.20" from="835798061#2" to="835994684#1"/>
    <trip id="205" depart="164.00" from="-836059696#1" to="328386011#3"/>
    <trip id="206" depart="164.80" from="836039947#2" to="-833797711"/>
    <trip id="207" depart="165.60" from="-188574993#3" to="-723381487#1"/>
    <trip id="208" depart="166.40" from="-384991570#1" to="384991570#1"/>
    <trip id="209" depart="167.20" from="-834122228" to="-834163091#2"/>
    <trip id="210" depart="168.00" from="828722195#2" to="-719628043#4"/>
    <trip id="211" depart="168.80" from="828749599#0" to="30162691#4"/>
    <trip id="212" depart="169.60" from="-835798065" to="832563010#3"/>
    <trip id="213" depart="170.40" from="-832854924#0" to="835653938"/>
    <trip id="214" depart="171.20" from="836028513#1" to="1152278959#6"/>
    <trip id="215" depart="172.00" from="385850309#2" to="836283624"/>
    <trip id="216" depart="172.80" from="696139685#0" to="723381485#2"/>
    <trip id="217" depart="173.60" from="834122232" to="836059698#7"/>
    <trip id="218" depart="174.40" from="723381487#0" to="99029667#2"/>
    <trip id="219" depart="175.20" from="-828402729#2" to="207901668#34"/>
    <trip id="220" depart="176.00" from="384853616#0" to="-835666998#6"/>
    <trip id="221" depart="176.80" from="-835703041" to="-385098282#0"/>
    <trip id="222" depart="177.60" from="836378399" to="-834128529"/>
    <trip id="223" depart="178.40" from="-836705016" to="835798072#1"/>
    <trip id="224" depart="179.20" from="-384855656#0" to="836392430#1"/>
    <trip id="225" depart="180.00" from="-207901662#6" to="-1169540836#1"/>
    <trip id="226" depart="180.80" from="-833804649#1" to="-835644847#3"/>
    <trip id="227" depart="181.60" from="835992822#0" to="835667005"/>
    <trip id="228" depart="182.40" from="751509976#2" to="-836298582#0"/>
    <trip id="229" depart="183.20" from="1219692248#1" to="-723373512#5"/>
    <trip id="230" depart="184.00" from="832841199#0" to="-835804745#3"/>
    <trip id="231" depart="184.80" from="-778926295#0" to="324810878"/>
    <trip id="232" depart="185.60" from="-328386011#1" to="-832841200#1"/>
    <trip id="233" depart="186.40" from="836028514#0" to="-207891077#0"/>
    <trip id="234" depart="187.20" from="-26189107#3" to="-64384039#3"/>
    <trip id="235" depart="188.00" from="-696139693#7" to="-836064622#6"/>
    <trip id="236" depart="188.80" from="-696139692#3" to="-834074993#1"/>
    <trip id="237" depart="189.60" from="-696139668" to="-726030199#0"/>
    <trip id="238" depart="190.40" from="207891100#0" to="-833836033#0"/>
    <trip id="239" depart="191.20" from="-834101285#2" to="755113388#18"/>
    <trip id="240" depart="192.00" from="-1255204263" to="-384842707#4"/>
    <trip id="241" depart="192.80" from="833830093#3" to="-836266313#0"/>
    <trip id="242" depart="193.60" from="828137752#2" to="-324810886#3"/>
    <trip id="243" depart="194.40" from="1149522245#7" to="833807366#0"/>
    <trip id="244" depart="195.20" from="-832834684#1" to="755113388#5"/>
    <trip id="245" depart="196.00" from="207891086#0" to="-835804766#2"/>
    <trip id="246" depart="196.80" from="99052521#4" to="-835804756#6"/>
    <trip id="247" depart="197.60" from="-836693680" to="207901667#4"/>
    <trip id="248" depart="198.40" from="-828749599#2" to="833776740#2"/>
    <trip id="249" depart="199.20" from="188578616#0" to="188574993#2"/>
    <trip id="250" depart="200.00" from="1203906300#3" to="99047705#3"/>
    <trip id="251" depart="200.80" from="99047724#9" to="833796924#0"/>
    <trip id="252" depart="201.60" from="-836266321" to="-836039944"/>
    <trip id="253" depart="202.40" from="1152278959#11" to="-123059914#1"/>
    <trip id="254" depart="203.20" from="-207880543#3" to="99052499#41"/>
    <trip id="255" depart="204.00" from="-207901664#0" to="836064622#4"/>
    <trip id="256" depart="204.80" from="384853660" to="835970507#2"/>
    <trip id="257" depart="205.60" from="-1269027952" to="-832572393#0"/>
    <trip id="258" depart="206.40" from="828749529" to="-1052623214"/>
    <trip id="259" depart="207.20" from="-207880534#1" to="-834101285#1"/>
    <trip id="260" depart="208.00" from="-384844784#0" to="-384842718#0"/>
    <trip id="261" depart="208.80" from="384853611#1" to="-207880554#10"/>
    <trip id="262" depart="209.60" from="836708285" to="384841850#2"/>
    <trip id="263" depart="210.40" from="-123059895#3" to="835804707"/>
    <trip id="264" depart="211.20" from="-676318043#2" to="102309334#1"/>
    <trip id="265" depart="212.00" from="1254789993" to="-368636905#1"/>
    <trip id="266" depart="212.80" from="-99052549#5" to="-1255918018#0"/>
    <trip id="267" depart="213.60" from="-385851720#2" to="835992827#4"/>
    <trip id="268" depart="214.40" from="832563007#2" to="122087025"/>
    <trip id="269" depart="215.20" from="384855653#1" to="835649883#1"/>
    <trip id="270" depart="216.00" from="-232406459#1" to="1093777811#0"/>
    <trip id="271" depart="216.80" from="-207901668#15" to="-207901668#32"/>
    <trip id="272" depart="217.60" from="-207880543#3" to="-676314761#0"/>
    <trip id="273" depart="218.40" from="-1253159051" to="-676314772#2"/>
    <trip id="274" depart="219.20" from="-835639867#0" to="207901668#36"/>
    <trip id="275" depart="220.00" from="834073109#5" to="835804739#2"/>
    <trip id="276" depart="220.80" from="64384033#1" to="1153909092#6"/>
    <trip id="277" depart="221.60" from="835992816" to="-384853652#0"/>
    <trip id="278" depart="222.40" from="-207880519#2" to="832557104#1"/>
    <trip id="279" depart="223.20" from="207901667#14" to="-676067482#1"/>
    <trip id="280" depart="224.00" from="-834163082" to="-832551873#3"/>
    <trip id="281" depart="224.80" from="-835999035" to="-836077323#1"/>
    <trip id="282" depart="225.60" from="-835791095#3" to="828722206#5"/>
    <trip id="283" depart="226.40" from="828749614#2" to="1270842290"/>
    <trip id="284" depart="227.20" from="-836683546#0" to="-828749568#1"/>
    <trip id="285" depart="228.00" from="754781020#2" to="99047707#7"/>
    <trip id="286" depart="228.80" from="-673287686#7" to="586237776#4"/>
    <trip id="287" depart="229.60" from="47572742#11" to="384844761#8"/>
    <trip id="288" depart="230.40" from="-1169540840#2" to="1255873986#1"/>
    <trip id="289" depart="231.20" from="-385864130#1" to="-627134532#1"/>
    <trip id="290" depart="232.00" from="1302253516" to="368636905#0"/>
    <trip id="291" depart="232.80" from="207901664#6" to="696139695#0"/>
    <trip id="292" depart="233.60" from="565282632#6" to="-99052512#3"/>
    <trip id="293" depart="234.40" from="-1230275273#1" to="765739206#0"/>
    <trip id="294" depart="235.20" from="832563011#1" to="832858001"/>
    <trip id="295" depart="236.00" from="188578623#0" to="-122769182#1"/>
    <trip id="296" depart="236.80" from="-385850655#0" to="-207897663#7"/>
    <trip id="297" depart="237.60" from="207901685#2" to="1255190657"/>
    <trip id="298" depart="238.40" from="-384855656#1" to="836372816#1"/>
    <trip id="299" depart="239.20" from="99029658#1" to="835804709#2"/>
    <trip id="300" depart="240.00" from="-836372817#3" to="-828749602#1"/>
    <trip id="301" depart="240.80" from="-567646045#14" to="832572395#1"/>
    <trip id="302" depart="241.60" from="489009457#4" to="-828722193"/>
    <trip id="303" depart="242.40" from="835804724#0" to="1283100240"/>
    <trip id="304" depart="243.20" from="64387507#1" to="-99029630#4"/>
    <trip id="305" depart="244.00" from="384842713#1" to="-207901685#1"/>
    <trip id="306" depart="244.80" from="565282632#2" to="-828722165#0"/>
    <trip id="307" depart="245.60" from="835804763#0" to="-676314770#0"/>
    <trip id="308" depart="246.40" from="-832572405" to="1253509715#1"/>
    <trip id="309" depart="247.20" from="-835667016#1" to="122769182#2"/>
    <trip id="310" depart="248.00" from="835999037#1" to="-64384030#3"/>
    <trip id="311" depart="248.80" from="765739203" to="47572742#10"/>
    <trip id="312" depart="249.60" from="828459736#1" to="-836683538#1"/>
    <trip id="313" depart="250.40" from="-836266320#1" to="-834087306"/>
    <trip id="314" depart="251.20" from="-836693675#0" to="-761022022#2"/>
    <trip id="315" depart="252.00" from="-385085297#5" to="-99052529#2"/>
    <trip id="316" depart="252.80" from="-385085299#8" to="-99047739#24"/>
    <trip id="317" depart="253.60" from="1271694655#0" to="-832588389#0"/>
    <trip id="318" depart="254.40" from="-384844767#2" to="207897635#10"/>
    <trip id="319" depart="255.20" from="834074994#0" to="-696139649#0"/>
    <trip id="320" depart="256.00" from="207897647#1" to="384844764#0"/>
    <trip id="321" depart="256.80" from="835666998#6" to="385103741#1"/>
    <trip id="322" depart="257.60" from="-828749543#4" to="-64400856#1"/>
    <trip id="323" depart="258.40" from="-1094447661#5" to="834163090"/>
    <trip id="324" depart="259.20" from="-385851314#2" to="-832834689#1"/>
    <trip id="325" depart="260.00" from="-828749613#3" to="-765913435#2"/>
    <trip id="326" depart="260.80" from="673267888#1" to="-834074994#1"/>
    <trip id="327" depart="261.60" from="-836059684#1" to="-836059701#1"/>
    <trip id="328" depart="262.40" from="832841199#0" to="-1151579614#1"/>
    <trip id="329" depart="263.20" from="1302253516" to="-324810877#0"/>
    <trip id="330" depart="264.00" from="-328386011#1" to="207897638#2"/>
    <trip id="331" depart="264.80" from="-834128528#1" to="-1273606964"/>
    <trip id="332" depart="265.60" from="1375776895#8" to="835970502#4"/>
    <trip id="333" depart="266.40" from="32067475#5" to="1125443416#1"/>
    <trip id="334" depart="267.20" from="828749560" to="835978161#0"/>
    <trip id="335" depart="268.00" from="-33613778#0" to="-832557105#0"/>
    <trip id="336" depart="268.80" from="836683536#1" to="836028514#1"/>
    <trip id="337" depart="269.60" from="-385864348#0" to="586238028#5"/>
    <trip id="338" depart="270.40" from="835639867#0" to="188582607#2"/>
    <trip id="339" depart="271.20" from="565282632#1" to="122769171"/>
    <trip id="340" depart="272.00" from="-676314770#3" to="-676314765#2"/>
    <trip id="341" depart="272.80" from="-1255204265#0" to="384853625#7"/>
    <trip id="342" depart="273.60" from="-207901683#1" to="207901668#23"/>
    <trip id="343" depart="274.40" from="-835667009" to="-836298578"/>
    <trip id="344" depart="275.20" from="836708276#3" to="-835804756#0"/>
    <trip id="345" depart="276.00" from="-836693688#0" to="-835798087#2"/>
    <trip id="346" depart="276.80" from="-628760985" to="-696139663#0"/>
    <trip id="347" depart="277.60" from="1169540828#1" to="832557100#3"/>
    <trip id="348" depart="278.40" from="-1371037324#0" to="836266311#0"/>
    <trip id="349" depart="279.20" from="384853638" to="-1255602649#0"/>
    <trip id="350" depart="280.00" from="567646049#2" to="-835992827#3"/>
    <trip id="351" depart="280.80" from="1080757453#5" to="-207897643#0"/>
    <trip id="352" depart="281.60" from="1046062583" to="1213504286"/>
    <trip id="353" depart="282.40" from="828402723" to="1375776897"/>
    <trip id="354" depart="283.20" from="567646045#2" to="696139653"/>
    <trip id="355" depart="284.00" from="-64384031" to="-1169540820#1"/>
    <trip id="356" depart="284.80" from="-836708283" to="-32067447#22"/>
    <trip id="357" depart="285.60" from="-26189107#10" to="-833776740#0"/>
    <trip id="358" depart="286.40" from="1201253946#3" to="207901662#4"/>
    <trip id="359" depart="287.20" from="324810886#1" to="836077316#1"/>
    <trip id="360" depart="288.00" from="-1301687796" to="384853656#0"/>
    <trip id="361" depart="288.80" from="-836039953#0" to="-384841824#1"/>
    <trip id="362" depart="289.60" from="-828749576" to="384844774"/>
    <trip id="363" depart="290.40" from="-836693674" to="836077329#1"/>
    <trip id="364" depart="291.20" from="-833823521#1" to="-834073105"/>
    <trip id="365" depart="292.00" from="835994686#0" to="207897636#1"/>
    <trip id="366" depart="292.80" from="-207880535#0" to="828402730#1"/>
    <trip id="367" depart="293.60" from="-834073108#3" to="836270186"/>
    <trip id="368" depart="294.40" from="207901685#2" to="828749585#0"/>
    <trip id="369" depart="295.20" from="835798076#1" to="1169540823"/>
    <trip id="370" depart="296.00" from="836693687#0" to="-1169540825"/>
    <trip id="371" depart="296.80" from="-832834700#3" to="833776741#0"/>
    <trip id="372" depart="297.60" from="-1052623203#1" to="384855644#1"/>
    <trip id="373" depart="298.40" from="99052549#7" to="64387507#2"/>
    <trip id="374" depart="299.20" from="834082656#2" to="-1388420101#1"/>
    <trip id="375" depart="300.00" from="1203906302#4" to="207897653#3"/>
    <trip id="376" depart="300.80" from="-836039929#4" to="-836059701#2"/>
    <trip id="377" depart="301.60" from="828722170#1" to="-384853649#3"/>
    <trip id="378" depart="302.40" from="-1229645731" to="207880509#3"/>
    <trip id="379" depart="303.20" from="836693676" to="832572412#4"/>
    <trip id="380" depart="304.00" from="384853628" to="-828749615#1"/>
    <trip id="381" depart="304.80" from="835804736#0" to="-1229249806"/>
    <trip id="382" depart="305.60" from="-696139669#0" to="828466183#1"/>
    <trip id="383" depart="306.40" from="835798061#3" to="-835992833#0"/>
    <trip id="384" depart="307.20" from="835804756#0" to="-207901663#6"/>
    <trip id="385" depart="308.00" from="188574997" to="-1296595652"/>
    <trip id="386" depart="308.80" from="-676314766#3" to="-567646045#6"/>
    <trip id="387" depart="309.60" from="-102309346#5" to="-835994686#2"/>
    <trip id="388" depart="310.40" from="-99052521#2" to="-828749536#2"/>
    <trip id="389" depart="311.20" from="35460672#2" to="-1255593466#1"/>
    <trip id="390" depart="312.00" from="1096879157#2" to="1229279456#0"/>
    <trip id="391" depart="312.80" from="-835798086#2" to="835970504#0"/>
    <trip id="392" depart="313.60" from="-207901662#1" to="-836077319#0"/>
    <trip id="393" depart="314.40" from="-836298578" to="-835791076"/>
    <trip id="394" depart="315.20" from="95222417#7" to="1302253515"/>
    <trip id="395" depart="316.00" from="1094447661#0" to="-836378397#2"/>
    <trip id="396" depart="316.80" from="-836039953#1" to="836291629#1"/>
    <trip id="397" depart="317.60" from="828749537" to="384841825#2"/>
    <trip id="398" depart="318.40" from="-384842709#2" to="207880526#1"/>
    <trip id="399" depart="319.20" from="-207901663#6" to="-834101292#0"/>
    <trip id="400" depart="320.00" from="-1152278970#14" to="628760983#1"/>
    <trip id="401" depart="320.80" from="99029650#0" to="324810879"/>
    <trip id="402" depart="321.60" from="-836059698#11" to="-99047707#12"/>
    <trip id="403" depart="322.40" from="-835977004#1" to="-828459737#2"/>
    <trip id="404" depart="323.20" from="-64384025" to="723373512#8"/>