<?xml version='1.0' encoding='UTF-8'?>
<routes xmlns:xsi="http://www.w3.org/2001/XMLSchema-instance" xsi:noNamespaceSchemaLocation="http://sumo.dlr.de/xsd/routes_file.xsd">
    <vehicle id="0" depart="0.00" type="cng">
        <route edges="1244530602 -1081986744#1 -1081986744#0 55207561#1 55207561#2 55207561#3 709900020#1 689336459#1 689336459#2 610375780 1288042210#4 56723584#0 56723584#1 56723584#2 56723584#3 56723584#4 56723584#5 56723584#6 56723584#7 56723584#8 56723584#9 56723584#10 56723584#11 56723584#12 56723584#13 1187835577#0 1187835577#1 1187835577#2 1187835577#3 1429000798#0 1429000798#1 370186850#0 370186850#1 370186850#2 370186850#3 370186850#4 370186850#5 370186850#6 423737636#1 423737636#2 423737570#5 423737570#6 423737570#7 -423737638#1 -370186845#5 -370186845#4 -370186845#3 -370186845#2 -370186845#1 -370186845#0 -1238270504#2 -1238270504#1 -1238270504#0 423754761#0 423754761#1 423754761#2 -1428965770#1 -1081665242#0" />
    </vehicle>
    <vehicle id="1" depart="0.80" type="cng">
        <route edges="-423591137#1 1428999970#4 1428999970#5 1428999970#6 1428999970#8 1428999970#9 1428999970#10 1428999970#11 1428999970#12 1428999970#13 1428999970#14 1428999970#15 235103510#0 235103510#1 235103510#2 235103510#3 235103510#4 -423591258#4 -423591258#3 -423591258#2 -423591258#1 -423591258#0 -423590906#1 -423590895#8 -423590895#7 -423590895#6 -423590895#5 -423590895#4 -423590895#3 -423590895#2 -423591211#0" />
    </vehicle>
    <vehicle id="2" depart="1.60" type="cng">
        <route edges="423552742#0 -257886611#6 -257886611#5 -257886611#4 -257886611#3 -257886611#2 -257886611#1 -257886611#0 -1429156792#8 -1429156792#7 -1429156792#6 423552646#0 423552646#1 423552646#2 423552646#3 423552646#4 423552646#5 423552646#6 423552646#7 423552646#8 423552646#9 423552646#10 202969533#25 202969533#26 202969533#27 168928010#0 56723584#3 56723584#4 423591247#0 423591247#1 423591247#2 423590919#3 423590919#4 423590919#5 423590919#6 423590919#7" />
    </vehicle>
    <vehicle id="3" depart="2.40" type="cng">
        <route edges="423779388#0 423779388#1 -423779505#0 1244281422#17 1244281422#18 1244281422#19 1244281422#20 1244281422#21 1244281422#22 1244281422#23 56723584#15 56723584#17 56723584#18 56723584#19 56723584#20 56723584#21 369837703#0 369837703#1 369837703#2 369837703#3 369837703#4 706562595 -374688984#4 -374688984#3 -374688984#2 -374688984#1 -374688984#0 -374688980#0 -1311513528" />
    </vehicle>
    <vehicle id="4" depart="3.20" type="cng">
        <route edges="-423754774#2 -423754774#1 -423754774#0 1238271286 -423737635#2 -423737635#1 -423737635#0 -1185440249 -1185440252 -423737612#2 -423737570#6 -423737570#5 -423737636#2 -423737636#1 -370186850#6 -370186850#5 -370186850#4 -370186850#3 -370186850#2 -370186850#1 -370186850#0 -1429000798#1 -1429000798#0 -1187835577#3 -1187835577#2 -1187835577#1 -1187835577#0 56723584#14 -1244281422#23 -1244281422#22 -1244281422#21 -1244281422#20 -1244281422#19 -1244281422#18 -1244281422#17 -1244281422#16 -1244281422#15 -1244281422#14 -1244281422#13 -1244281422#12 -1244281422#11 -1244281422#10 -1244281422#9 -1244281422#8 -1244281422#7 -1244281422#6 -1244281422#5 -423830467#5 -1040456806#1 -1040456806#0 -423830187#0 -1244284933#1 423830212#7 423830212#8 423830185#0 423830185#1 423830185#2 423830185#3 423830185#4 423830185#5 423830185#6 -316542827#5 -316542827#3 -316542827#2 -316542827#1 -316542827#0 423779499#0 423779499#1 423779499#2 423779499#3 423779499#4 1429230140#0 -1082004514#1 -1082004514#0" />
    </vehicle>
    <vehicle id="5" depart="4.00" type="cng">
        <route edges="-423552735#1 -423552649#2 -423552649#1 -423552649#0 -1244273470 -423779416 423552712#7 423552712#8 1236544133 1187840223#0 1187840223#1 1187840223#2 1187840223#3 1187840223#4 1187840227 1187840221#0 1187840221#1 1244281422#13 1244281422#14 1244281422#15" />
    </vehicle>
    <vehicle id="6" depart="4.80" type="cng">
        <route edges="-1081329787 -423737629#2 -423737629#1 -423737629#0 1429000797#3 1429000797#5 1238289074 1236537352 -207565747#20 -207565747#19 -207565747#18 -207565747#17 -207565747#16 -207565747#15 -207565747#14 -207565747#13 -207565747#11 -207565747#10 -207565747#9 -207565747#8 1429169115#1 1429169115#2 369837717#1 369837717#2 369837717#4 369837717#5 369837717#6 369837717#7 369837717#8 235103510#0 235103510#1 168928124#0 1214970058 168928124#2 168928124#3 168928124#4 168928124#5 168928124#6 168928124#7 168928124#8 168928124#9 168928124#10 168928124#11 168928124#12 168928124#13 168928124#14 168928124#15 423591221#2 -423590921#6 -423590921#5 -423590921#4 -423590921#3 -423590921#2 -423590921#1 -423590921#0" />
    </vehicle>
    <vehicle id="7" depart="5.60" type="cng">
        <route edges="1311507436 -374688966#0 1074991205 202969533#4 202969533#5 202969533#6 202969533#7 202969533#8 202969533#9 202969533#11 202969533#12 202969533#13 202969533#14 202969533#15 423737634#0 423737634#1 423737634#2 1238289074 1236537352 -207565747#20 -207565747#19 -207565747#18 -207565747#17 -207565747#16 -207565747#15 -207565747#14 -207565747#13 -207565747#11 -207565747#10 -207565747#9 -207565747#8 1214968659#0 1214968659#1 -423607638#3 -423607638#2 -423607638#1 -423607638#0 369837718#9 369837718#10 369837718#11 369837718#13 369837718#14 369837727#7 369837727#8 369837727#9 369837727#10 1428999886#0 1428999886#1 1428999886#2 1428999886#3 1428999886#5 1428999886#6" />
    </vehicle>
    <vehicle id="8" depart="6.40" type="cng">
        <route edges="-423552749#0 -423552809#4 -423552809#3 -423552809#2 -423552809#1 -423552809#0 257886428#3 257886428#4 165071962#9 165071962#10 165071962#11 165071962#12 165071962#13 165071962#14 165071962#15 423552713#0 423552713#1 423779463 1430148142#4 1430148142#5 316542827#0 316542827#1 316542827#2 316542827#3" />
    </vehicle>
    <vehicle id="9" depart="7.20" type="cng">
        <route edges="423591309#1 423591309#2 423591309#3 423591309#4 423591309#5 -423591263#1 -423591263#0 423591052#10 423591052#11 423591052#12 423591052#13 423591052#14 423591052#15 423591052#16 423591052#17 -423591162#18 -423591162#17 -423591162#16 -423591162#15 -423591162#14 -423591162#13 -423591162#12 -423591162#11 -423591162#10 -423591162#9 -423591162#8 -423591162#7 423591236#2 202969533#22 165071962#0 165071962#1 165071962#2 165071962#3 165071962#4 165071962#5 165071962#6 165071962#7 165071962#8 165071962#9 165071962#10 165071962#11 165071962#12 165071962#13 165071962#14 165071962#15 423552713#0 -1057801349#0" />
    </vehicle>
    <vehicle id="10" depart="8.00" type="cng">
        <route edges="423591288#3 1081329792 423591036#1 -423591196#2 -423591299#0 423591131#0 423591131#1" />
    </vehicle>
    <vehicle id="11" depart="8.80" type="cng">
        <route edges="-423607641#2 -423607641#1 -423607641#0 1081354410#4 1081354410#5 -369837720#13 -369837720#12 -369837720#11 -369837720#10 -369837720#9 -369837720#8 -369837720#7 -369837720#6 -369837720#5 -369837720#4 -369837720#2 -369837720#1 -369837720#0 168928126#0 168928126#1 168928126#2 168928126#3 168928126#4 -1081317174#4 -1081317174#3 -1081317174#1 -1081317174#0 -423591306#2 -423591306#1 -423591306#0 1429169114#0 1429169114#1 423591045 423590919#10 -1081337938 423591060#0 423591060#1 423591060#2 423591060#3 423591236#0 423591236#1 423591236#2 202969533#22 165071962#0 -423552796#3 -423552796#2 -423552796#1 -1310796977#3 -1310796977#2 -1310796977#1 -1310796977#0 423552791#3 -423552648#3 -423552648#2 -423552648#1 -423552648#0" />
    </vehicle>
    <vehicle id="12" depart="9.60" type="cng">
        <route edges="444065242#0 444065242#1 444065242#2 1081309636#0 -423754751#1 -423754751#0 -1125146033 207565747#0 207565747#1 207565747#2 207565747#3 207565747#4 -1236537353#1 -1236537353#0 -423737634#2 -423737634#1 -423737634#0 56723584#11 56723584#12 56723584#13 56723584#14 -1244281422#23 -1244281422#22 -1244281422#21 -1244281422#20 -1244281422#19 -1244281422#18 -1244281422#17 -1244281422#16 -1244281422#15 -1244281422#14 -1244281422#13 -1244281422#12 -1244281422#11 -1244281422#10 -1244281422#9 -1244281422#8 -1244281422#7 -1244281422#6 -1244281422#5 -1244281422#3 -1244281422#2 -1244281422#1 -1244281422#0 -1428256669#17 -1428256669#16 -1428256669#15 -1428256669#14 -1428256669#13 -423830207#8 -423830207#7 -423830207#6 -423830207#4 -423830207#3 -423830207#2 -423830207#1" />
    </vehicle>
    <vehicle id="13" depart="10.40" type="cng">
        <route edges="-1244386435 423552779#0 423552779#1 1244386434 -55207564#3 -55207564#2 -55207564#1 55207530#10 55207530#12 55207530#13 55207530#14 55207530#15 55207530#16 1288042210#1 1288042210#2 1288042210#3 1288042210#4 56723584#0 56723584#1 56723584#2 56723584#3 56723584#4 56723584#5 56723584#6 56723584#7 56723584#8 56723584#9 56723584#10 56723584#11 56723584#12 56723584#13 1187835577#0 1187835577#1 1187835577#2 1187835577#3 1429000798#0 1429000798#1 370186850#0 370186850#1 370186850#2 370186850#3 370186850#4 370186850#5 370186850#6 423737636#1 423737636#2 423737570#5 423737570#6 423737612#2 1185440252 1185440249 423737635#0 423737635#1 423737635#2 1238271287 1185435870#0 1185435870#1 1185435870#2 1428996007#0 -1428996007#0" />
    </vehicle>
    <vehicle id="14" depart="11.20" type="cng">
        <route edges="423618519#7 -423618519#7 -423618519#6 -423618519#5 -423618519#4 -423618519#3 -423618519#2 -423618519#1 -423618519#0 -423618493#5 -423618493#4 -423618493#3 -423618493#2 -423618493#0 -423618524#1 -423618526#0 -1081315944#0 488174453#1 488174453#2 488174453#4 488174453#5 488174453#6 488174453#8 488174453#9 601402978#1 601402978#2 601402978#3 601402978#4 601402978#5 610375781 615472549#0 615472549#1 1279062158#1 77645945#0 77645945#1 77645945#2 -1282730054 -1282730052 -55207531#5 -55207531#4 -55207531#3 -55207531#2 -55207531#1 -55207531#0 423552736 -423552759#2 -423552759#1 -423552759#0 370187979#1" />
    </vehicle>
    <vehicle id="15" depart="12.00" type="cng">
        <route edges="423591293#0 423591293#1 -423591162#12 -423591162#11 -423591162#10 -423591162#9 -423591162#8 -423591162#7 423591236#2 202969533#22 202969533#23 202969533#24 202969533#25 202969533#26 202969533#27 168928010#0 168928010#1 1429169113#1 423591315#6" />
    </vehicle>
    <vehicle id="16" depart="12.80" type="cng">
        <route edges="-682347520#2 -682347520#1 1081310725#0 1081310725#1 -1081310726 -1040445663#0 -423607644#0 1040437648#0 1040437648#1 1040437648#2 1124385756#1 -369837698#8 -369837698#6 -369837698#4 -369837698#3 -369837698#1 -369837698#0 -369837720#13 -369837720#12 -369837720#11 -369837720#10 -423591292#11 -1221676678#0 -423607636 -423608654#2 -423608654#1 -313905501#7 -313905501#6 -313905501#5 -313905501#4 -313905501#3 -313905501#2 -313905501#1 -313905501#0 -488174459#0 1414067881#1 1414067881#2 1081323147#0 1081323147#1 1081323147#2 58472976#4 58472976#5" />
    </vehicle>
    <vehicle id="17" depart="13.60" type="cng">
        <route edges="-423737576 -370186850#2 -370186850#1 -370186850#0 -1429000798#1 -1429000798#0 -1187835577#3 -1187835577#2 -1187835577#1 -1187835577#0 56723584#14 -1244281422#23 -1244281422#22 -1244281422#21 -1244281422#20 -1244281422#19 -1244281422#18 -1244281422#17 -1244281422#16 -1244281422#15 -1244281422#14 -1244281422#13 -1244281422#12 -1244281422#11 -1244281422#10 -1244281422#9 -1244281422#8 -1244281422#7 -1244281422#6 -1244281422#5 -1244281422#3 -1244281422#2 -1244281422#1 -1244281422#0 -1428256669#17 -1428256669#16 -1428256669#15 -1428256669#14 -1428256669#13 -1428256669#12 -1428256669#11 -1428256669#10 -1428256669#9 -1428256669#8 -1428256669#7 -1428256669#5 -1428256669#4 -1428256669#3 -1428256669#1 -1428256669#0 -1244281591#15 -1244281591#14 423830390#0 423830390#1 -423830487#4 -423830487#3 -423830487#2 -423830487#1 -423830487#0 -423830408#1 58379809#17 -423830456#0 -423830296#1 -423830296#0 423830205#3 423830205#4 423830205#5 -423830399#0 423830312#0 423830312#1 423830312#2 423830312#3 423830312#4 423830312#5 423830312#6 423830312#7 423830312#8 423830312#9 423830312#10 1429230139#5" />
    </vehicle>
    <vehicle id="18" depart="14.40" type="cng">
        <route edges="423607596#0 423607596#1 -1221676678#0 -423607636 -423608654#2 423627841#6 423627841#7 423627841#8 423627841#9 423627841#10 423627841#11 423627841#12 423627841#13 423627841#14 423627841#16 423931982#1 488174453#5 488174453#6 488174453#8 488174453#9 601402978#1 601402978#2 601402978#3 601402978#4 601402978#5 56723584#0 56723584#1 56723584#2 56723584#3 56723584#4 56723584#5 56723584#6 56723584#7 56723584#8 56723584#9 56723584#10 56723584#11 56723584#12 56723584#13 56723584#14 56723584#15 56723584#17 56723584#18 56723584#19 56723584#20 56723584#21 56723584#22 56723584#23 369835648#0 369835648#1 369835648#2 369835648#3 369835648#4 369835648#5 369835648#6 369835648#7 369835648#8 369835648#9 369835648#11 369835648#12 369835648#13 369835648#14 369835648#15 369835648#16 369835648#18 369835648#19 369835648#20 369835648#21 392064540" />
    </vehicle>
    <vehicle id="19" depart="15.20" type="cng">
        <route edges="423627893#1 -423627896#3 -423627896#2 -423627896#1 -423627898#3 -423627839#2 -423627839#1 -423627839#0 -369837704#7 -369837704#6 -369837704#5 -369837704#4 -369837704#3 -369837704#2 -369837704#1 -369837704#0 -369837720#12 -369837720#11 -369837720#10 -369837720#9 -369837720#8 -369837720#7 -369837720#6 -369837720#5 423591124 1428980101 -168928124#27 -168928124#26 -168928124#25 168928124#25" />
    </vehicle>
    <vehicle id="20" depart="16.00" type="cng">
        <route edges="369837724#5 -369837724#5 -374688944#0 374688967#1 -369835648#18 -369835648#16 -369835648#15 -369835648#14 -369835648#13 -369835648#12 -369835648#11 -369835648#9 -369835648#8 -369835648#7 -369835648#6 369837701#0 369837701#1 369837701#2 369837701#3 369837701#4 369837701#5 369837701#6 -706562594 374688957 719271340 -875150164#5 -875150164#4 -875150164#3 -875150164#2 -875150164#1 -875150164#0 -1187831398#3" />
    </vehicle>
    <vehicle id="21" depart="16.80" type="cng">
        <route edges="-423552784#1 -423552784#0 -165071962#12 -165071962#11 -165071962#10 -165071962#9 -165071962#8 -165071962#7 -165071962#6 -165071962#5 -165071962#4 -165071962#3 -165071962#2 -165071962#1 -165071962#0 202969533#23 202969533#24 202969533#25 202969533#26 202969533#27 202969533#28 202969533#29 202969533#30 202969533#31 689336459#0 689336459#1 689336459#2 610375780 488174454#0 488174454#1 488174454#2 488174454#4 488174459#0 488174459#1 1428974753#2 1428974753#3 1428974753#4 -168927798#5 -168927798#4 -168927798#3 -168927798#2 -168927798#0 1428974755#0 423627884#3 423627884#4 -423627890#1" />
    </vehicle>
    <vehicle id="22" depart="17.60" type="cng">
        <route edges="-1236547974 -423779460 1187840223#1 1187840223#2 1187840223#3 1187840223#4 1236548660#0 1236548660#2 1236548660#3 1187832681#0 1187832681#1 1187832681#2 1187832681#4 202969533#15 202969533#16 202969533#17 202969533#18 202969533#19 202969533#20 202969533#21 202969533#22 202969533#23 202969533#24 202969533#25 202969533#26 202969533#27 202969533#28 202969533#29 202969533#30 -1066006307 423591278#0 -423590902#7 -423590961 423591317#7 -423591278#1" />
    </vehicle>
    <vehicle id="23" depart="18.40" type="cng">
        <route edges="-1306548303#1 773789410#3 -1429230140#11 -1429230140#10 -1429230140#8 -1429230140#7 -1429230140#6 -1429230140#4 -1429230140#2 -1429230140#1 -1429230140#0 -1041332588#7 -1041332588#6 -1041332588#5 -1041332588#2 -1081313439#1 -1081313439#0 1081314171#1 -263321230 1081986743#0 1081986743#1 1081986743#2 1081986743#4 1081986743#5 1081986743#6 1081986743#7 1081986743#8 1081986743#9 55207561#2 55207561#3 709900020#1 689336459#1 689336459#2 610375780 488174454#0 488174454#1 488174454#2 488174454#4 488174459#0 488174459#1 1428974753#2 1428974753#3 1428974753#4 423618524#0 423618524#1 423618493#0 423618493#2 423618493#3 -1428974755#3 -423618526#5" />
    </vehicle>
    <vehicle id="24" depart="19.20" type="cng">
        <route edges="1244281423#4 1244281423#5 1244281423#6 1244281423#7 1244281422#0 1244281422#1 1244281422#2 1244281422#3 -423830467#5 -1040456806#1 -423830225 -423779506#5 -423779506#4 -423779506#3 -423830428#1 -423830428#0 -423830440#1 -423830440#0" />
    </vehicle>
    <vehicle id="25" depart="20.00" type="cng">
        <route edges="-423627897#2 -423627897#1 -423627897#0 423627841#0 423627841#1 423627841#2 423627841#3 423627841#4 423627841#5 423627841#6 423627841#7 423627841#8 423627841#9 423627841#10 423627841#11 423627841#12 423627841#13 423627841#14 423627841#16 423931982#1 488174453#5 488174453#6 488174453#8 488174453#9 601402978#1 601402978#2 601402978#3 601402978#4 601402978#5 56723584#0 56723584#1 56723584#2 56723584#3 56723584#4 56723584#5 56723584#6 -423591236#2 -423591236#1 423591159#5 -423591128#0" />
    </vehicle>
    <vehicle id="26" depart="20.80" type="cng">
        <route edges="-423591055#6 -423591227#3 -423591227#2 -168928124#10 -168928124#9 -168928124#8 -168928124#7 -168928124#6 -168928124#5 -168928124#4 -168928124#3 -168928124#2 -168928124#1 -168928124#0 235103510#2 423591052#0 423591052#1 423591052#3 423591052#4 423591052#5 423591052#6 423591052#7 423591052#8 423591052#9 423591052#10 423591052#11 423591052#12 423591052#13 423591052#14 423591052#15 423591052#16 423591052#17 423591052#18 56723584#9 56723584#10 56723584#11 56723584#12 56723584#13 56723584#14 -1244281422#23 -1244281422#22 -1244281422#21 -1244281422#20 -1244281422#19 -1244281422#18 -1244281422#17 -1244281422#16 -1244281422#15 -1244281422#14 -1244281422#13 -1244281422#12 -1244281422#11 -1244281422#10 -1244281422#9 -1244281422#8 -1244281422#7 -1244281422#6 -1244281422#5 -1244281422#3 -1244281422#2 -1244281422#1 -1244281422#0 -1428256669#17 -1428256669#16 -1428256669#15 -1428256669#14 -1428256669#13 -1428256669#12 -1428256669#11 -1428256669#10 -1428256669#9 -1428256669#8 -1428256669#7 -1428256669#5 -1428256669#4 -1428256669#3 -1428256669#1 -1428256669#0 -1430148144 423846765 423846774" />
    </vehicle>
    <vehicle id="27" depart="21.60" type="cng">
        <route edges="1310806701#0 1310806701#1 1310806701#2 1453802331 1447243924#0 1447243924#1 1447243924#2 1447243924#3 1447243924#4 55207530#7 55207530#8 55207530#9 55207530#10 55207530#12 55207530#13 55207530#14 55207530#15 55207530#16 1288042210#1 1288042210#2 1288042210#3 1288042210#4 56723584#0 56723584#1 56723584#2 56723584#3 56723584#4 56723584#5 56723584#6 56723584#7 56723584#8 56723584#9 56723584#10 56723584#11 56723584#12 56723584#13 56723584#14 56723584#15 56723584#17 56723584#18 56723584#19 56723584#20 56723584#21 369837703#0 369837703#1 369837703#2 -374688959#0 374688975#3 374688978#1 374688978#2 374688986#1 374688986#2 374688986#3 374688986#4 1238263788 1238263786#0 1238263786#1 1185431077#0 1185431077#1 374688972" />
    </vehicle>
    <vehicle id="28" depart="22.40" type="cng">
        <route edges="-369837701#7 -706562594 -423754779#4 -423754779#3 -423754779#2 -423754779#1 -423737624#3 -423737624#2 -423737624#1 370186849#3 370186849#4 370186849#5 370186849#6 370186849#7 370186849#8 1429000797#0 1429000797#1 1429000797#2 1429000797#3 1429000797#5 1238289074 1236537352 -207565747#20 -207565747#19 -207565747#18 -207565747#17 -423590906#9 -423590906#8 -423590906#7 -423590906#6 -423590906#5 -423590906#4 -423590906#3 -423590906#2 423591258#0 423591258#1 423591258#2 423591258#3 423591258#4 423591313#0" />
    </vehicle>
    <vehicle id="29" depart="23.20" type="cng">
        <route edges="-257886611#0 -1429156792#8 -1429156792#7 -1429156792#6 -1429156792#5 -1429156792#4 -1429156792#3 -1429156792#2 -1429156792#0 -165071962#3 -165071962#2 423552791#0 423552791#1 423552791#2 423552791#3 423552683#0 423552683#1 423552683#2 423552695#0 423552695#1 -423779516 -1244281422#13 -1244281422#12 -1244281422#11 -1244281422#10 -1244281422#9 -1244281422#8 -1244281422#7 -1244281422#6 -1244281422#5 -1244281422#3 -1244281422#2 -1244281422#1 -1244281422#0 -1428256669#17 -1428256669#16 -1428256669#15 -1428256669#14 -1428256669#13 -1428256669#12 -1428256669#11 -1428256669#10 -1428256669#9 -1428256669#8 -1428256669#7 -1428256669#5 -1428256669#4 -1428256669#3 -1428256669#1 423867596#0 423867596#1 423867617 -423867597#0" />
    </vehicle>
    <vehicle id="30" depart="24.00" type="cng">
        <route edges="717096966#5 -423754792#6 -423754792#5 -423754644#9 -423754644#8 -423754644#7 -423754644#6 -423754644#5 444065242#2 1081309636#0 -423754751#1 -423754751#0 -1125146033 207565747#0 207565747#1 207565747#2 207565747#3 207565747#4 -1236537353#1 -1236537353#0 -423737634#2 -423737634#1 -423737634#0 202969533#16 202969533#17 202969533#18 202969533#19 202969533#20 202969533#21 202969533#22 202969533#23 202969533#24 202969533#25 202969533#26 202969533#27 202969533#28 202969533#29 202969533#30 202969533#31 689336459#0 689336459#1 689336459#2 615472549#0 615472549#1 1275468530#0 1275468530#1 55207529#1 55207529#2 55207529#3 55207529#4 55207529#5 55207529#7 55207529#8 55207529#9 55207529#10 55207529#11 55207529#12 55207564#1 55207564#2 55207564#3 -1244386434 -423552779#1 -423552779#0 423552730" />
    </vehicle>
    <vehicle id="31" depart="24.80" type="cng">
        <route edges="-875114555 -875114545#0 875114548#1 875092400#0 875092400#1 875092400#2 875092400#3 1039682944#0 1039682944#1 1039682944#2 717096965#0 717096965#1 717096965#2 717096965#3 717096965#4 717096965#5 717096965#6 717096965#7 717096965#8 717096965#9 717096965#10 -423754767#1 -423754644#7 -423754644#6 -423754644#5 444065242#2 1081309636#0 1081309636#1 1081309636#2 1081309636#3 1081309636#4 369837727#0 369837727#1 369837727#2 369837727#3 369837727#4 369837727#5 369837727#7 369837727#8 369837727#9 369837727#10 1428999886#0 1428999886#1 1428999886#2 1428999886#3 423607568#0 1221676683#1 423590916#12 423590916#13 423590983" />
    </vehicle>
    <vehicle id="32" depart="25.60" type="cng">
        <route edges="423618488#0 423618516#2 423618516#3" />
    </vehicle>
    <vehicle id="33" depart="26.40" type="cng">
        <route edges="-423552786#2 -423552786#1 -423552786#0 257886428#2 257886428#3 257886428#4 165071962#9 165071962#10 165071962#11 165071962#12 165071962#13 165071962#14 165071962#15 165071962#16 165071962#17 -1081303112#0 1041332588#0 1041332588#1 1041332588#2 1041332588#5 1041332588#6 1041332588#7 1429230140#0 1429230140#1 1429230140#2 1429230140#4 1429230140#6 1429230140#7 1429230140#8 1429230140#10 1429230140#11 1429230139#1 1429230139#2 -1082004524#3 -1082004524#2" />
    </vehicle>
    <vehicle id="34" depart="27.20" type="cng">
        <route edges="-423607504 369837698#4 -1428999886#11 -1428999886#10 -1428999886#9 -1428999886#8 -1428999886#7 -1428999886#6 -1428999886#5 -1428999886#3 -1428999886#2 -1428999886#1 -1428999886#0 -369837727#10 -369837727#9 -369837727#8 -369837727#7 -369837718#14 -369837718#13 -369837718#11 -369837718#10 -369837718#9 423607638#0 423607638#1 423607638#2 -423607658#1 -423607658#0" />
    </vehicle>
    <vehicle id="35" depart="28.00" type="cng">
        <route edges="-423552712#2 423552712#2 423552712#3 423552712#4 423552712#5 423552712#7 423552712#8 1236544133 1187840223#0 1187840223#1 1187840223#2 1187840223#3 1187840223#4 1187840227 1187840221#0 1187840221#1 1244281422#13 1244281422#14 1244281422#15 1244281422#16 1244281422#17 1244281422#18 -423779467#1 -423779467#0 423867541#1" />
    </vehicle>
    <vehicle id="36" depart="28.80" type="cng">
        <route edges="423737633#0 423737633#1 1238284153 423737613#0 423737613#1 423737613#2 -370186845#7 -370186845#6 -370186845#5 -370186845#4 -370186845#3 -370186845#2 -370186845#1 -374688985#1 -374688985#0 369835648#16 369835648#18 369835648#19 369835648#20 369835648#21 369835648#22 369835648#23 369835648#25 369835648#26 1081738066 -423754766#3 -423754766#2 -423754766#1 -423754766#0" />
    </vehicle>
    <vehicle id="37" depart="29.60" type="cng">
        <route edges="1428930768#9 -1081310724 -1305177006#3 -1305177006#2 -1305177006#1 -682347520#4 -682347520#3 -682347520#2 -682347520#1 -682347520#0" />
    </vehicle>
    <vehicle id="38" depart="30.40" type="cng">
        <route edges="423830284 423830316#6 423830316#7 423830316#8 423830316#9 -423830436#1 -423830436#0 423830319#14 -423830203#10 -423830203#9 -423830485#5 -423830485#4 -423830485#3 -423830485#2 -423830485#1 423830430#2 423830430#3 423830430#4 1082004516#1 1082004525#4" />
    </vehicle>
    <vehicle id="39" depart="31.20" type="cng">
        <route edges="-423591049 423590908#4 423590908#5 423590908#6 423590908#7 423590908#8 423590908#9 423590908#10 168928010#3 168928008#1 423607487#0 -423607487#0" />
    </vehicle>
    <vehicle id="40" depart="32.00" type="cng">
        <route edges="1039518915#1 423931982#1 488174453#5 488174453#6 313905503#1 313905503#2 168928008#1 423607487#0 423607487#1 423607565 1238497534#4 423607491#0 423607491#1 423607491#2 423607491#3 -423607625#1" />
    </vehicle>
    <vehicle id="41" depart="32.80" type="cng">
        <route edges="1081345111#1 -1081345111#1 -1081345111#0 58472976#9 58472976#10 488174453#4 488174453#5 488174453#6 488174453#8 488174453#9 601402978#1 601402978#2 601402978#3 601402978#4 601402978#5 56723584#0 56723584#1 56723584#2 56723584#3 56723584#4 56723584#5 56723584#6 56723584#7 56723584#8 56723584#9 56723584#10 56723584#11 56723584#12 56723584#13 56723584#14 -1244281422#23 -1244281422#22 -1244281422#21 -1244281422#20 -1244281422#19 -1244281422#18 -1244281422#17 -1244281422#16 -1244281422#15 -1244281422#14 -1244281422#13 -1244281422#12 -1244281422#11 -1244281422#10 -1244281422#9 -1244281422#8 -1244281422#7 -1244281422#6 -1244281422#5 -1244281422#3 -1244281422#2 -1244281422#1 -1244281422#0 -1428256669#17 -1428256669#16 -1428256669#15 -1428256669#14 -423830481#5 -423830481#4 -423830481#3 -423830481#2 -423830481#1 -423830481#0 423830307#19" />
    </vehicle>
    <vehicle id="42" depart="33.60" type="cng">
        <route edges="-423754663 -423754792#2 -423754792#1 -423754792#0 1428965074 1210951173 1185438185#0 1185438185#1 1185438185#2 1185438185#3 1185438185#4 1081309636#0 -423754751#1 -423754751#0 -1125146033 207565747#0 207565747#1 207565747#2 207565747#3 207565747#4 -1236537353#1 1238289072#0 1238289072#1 207565747#13 207565747#14 207565747#15 207565747#16 -423590906#9 -423590906#8 -423590906#7 -423590906#6 -423590906#5 -423590906#4 423591052#13 -423591283#3 -423591283#2 -423591283#1 -423590895#7 -423590895#6 -423590895#5 -423590895#4 -423591191#0" />
    </vehicle>
    <vehicle id="43" depart="34.40" type="cng">
        <route edges="875114549 682348188#2 875092400#2 875092400#3 1039682944#0 1039682944#1 1039682944#2 717096965#0 717096965#1 717096965#2 -1081102191#3 -1081102191#2 -1081102191#1 -1081102191#0 -1428996007#1 -1428996007#0 -1185435870#2 -1185435870#1 -1185435870#0 -1238271287 -423737635#2 -423737635#1 -423737568#1 207565747#1 207565747#2 207565747#3 207565747#4 -1236537353#1 -1236537353#0 -423737634#2 -423737634#1 -423737634#0 202969533#16 202969533#17 -423552716#12 -423552716#11 -423552716#10 -423552716#9 -423552716#8 -423552716#6 -423552716#4 -423552716#3 -423552716#2 -423552716#0 -1244283823#4 -1244283823#2 -1244283823#1 -1244283823#0 1244283821" />
    </vehicle>
    <vehicle id="44" depart="35.20" type="cng">
        <route edges="-1244283821 1244283823#0 423552753#1 423552712#1 423552712#2 423552712#3 423552712#4 423552712#5 423552712#7 423552712#8 1236544133 -1187840218#1 -1187840218#0" />
    </vehicle>
    <vehicle id="45" depart="36.00" type="cng">
        <route edges="-1310868441 -1310868348#0 -1282725836#3 -1282725836#2 -1282725836#1 -1282725836#0 55207530#15 55207530#16 1288042210#1 1288042210#2 1288042210#3 1288042210#4 56723584#0 56723584#1 56723584#2 56723584#3 1429169112#2 202969533#27 202969533#28 721586833 1387997655 423552794#0 423552794#1 423552756#1 -423552808#2 -423552808#1 -423552808#0 -1429156792#7 -1429156792#6 -1429156792#5 -1429156792#4 -1429156792#3 -1429156792#2 423552675#0 423552675#1 423552802#0 423552802#1 423552802#2 423552802#3 423552678" />
    </vehicle>
    <vehicle id="46" depart="36.80" type="cng">
        <route edges="423591203 -423590893#1 -423590893#0 -423590941 423590919#16 235115525#2 235115525#3 423591060#0 423591060#1 423591060#2 423591060#3 423591236#0 423591236#1 423591236#2 202969533#22 165071962#0 165071962#1 165071962#2 165071962#3 165071962#4 165071962#5 165071962#6 165071962#7 165071962#8 165071962#9 165071962#10 165071962#11 165071962#12 165071962#13 165071962#14 165071962#15 165071962#16 165071962#17 -1081303112#0 1041332588#0 1041332588#1 1041332588#2" />
    </vehicle>
    <vehicle id="47" depart="37.60" type="cng">
        <route edges="-1187841332#1 -423779493#2 -423779493#1 -423779493#0 263168242#1 263168242#2 -423779497#1 -423779497#0 -1244281422#14 -1244281422#13 -1244281422#12 -1244281422#11 -1244281422#10 -1244281422#9 -1244281422#8 -1244281422#7 -1244281422#6 -1244281422#5 -1244281422#3 -1244281422#2 -1244281422#1 -1244281422#0 -1428256669#17 -1428256669#16 -1428256669#15 -1428256669#14 -1428256669#13 -1428256669#12 -1428256669#11 -1428256669#10 -1428256669#9 -1428256669#8 -1428256669#7 -1428256669#5 -1428256669#4 -1428256669#3 -1428256669#1 -1428256669#0 -1244281591#15 -1244281591#14 423830390#0 -423830469#4 -423830469#3 -423830469#2 -423830469#1 -423867633#2" />
    </vehicle>
    <vehicle id="48" depart="38.40" type="cng">
        <route edges="77645945#2 -1282730054 1053642617#0 55207557#0 55207557#1 -1282725836#2 -1282725836#1 -1282725836#0 55207529#3 55207529#4 55207529#5 55207529#7 55207529#8 55207529#9 55207529#10 55207529#11 55207529#12 55207529#13 55207529#14 423559510#1 423559510#2 423559526#0 423559526#1 1081319614#0 1081319614#1 1310869018" />
    </vehicle>
    <vehicle id="49" depart="39.20" type="cng">