<?xml version="1.0" encoding="UTF-8"?>

<!-- generated on 2026-03-23 04:23:55.472034 by Eclipse SUMO randomTrips.py v1_26_0+0000-fa7df22d7f1
<configuration>
    <net-file value="net2.net.xml"/>
    <output-trip-file value="trips2.trips.xml"/>
    <fringe-factor value="10"/>
    <end value="600.0"/>
    <period value="0.8"/>
</configuration>
-->

<routes xmlns:xsi="http://www.w3.org/2001/XMLSchema-instance" xsi:noNamespaceSchemaLocation="http://sumo.dlr.de/xsd/routes_file.xsd">
    <trip id="0" depart="0.00" from="1244530602" to="-1081665242#0"/>
    <trip id="1" depart="0.80" from="-423591137#1" to="-423591211#0"/>
    <trip id="2" depart="1.60" from="423552742#0" to="423590919#7"/>
    <trip id="3" depart="2.40" from="423779388#0" to="-1311513528"/>
    <trip id="4" depart="3.20" from="-423754774#2" to="-1082004514#0"/>
    <trip id="5" depart="4.00" from="-423552735#1" to="1244281422#15"/>
    <trip id="6" depart="4.80" from="-1081329787" to="-423590921#0"/>
    <trip id="7" depart="5.60" from="1311507436" to="1428999886#6"/>
    <trip id="8" depart="6.40" from="-423552749#0" to="316542827#3"/>
    <trip id="9" depart="7.20" from="423591309#1" to="-1057801349#0"/>
    <trip id="10" depart="8.00" from="423591288#3" to="423591131#1"/>
    <trip id="11" depart="8.80" from="-423607641#2" to="-423552648#0"/>
    <trip id="12" depart="9.60" from="444065242#0" to="-423830207#1"/>
    <trip id="13" depart="10.40" from="-1244386435" to="-1428996007#0"/>
    <trip id="14" depart="11.20" from="423618519#7" to="370187979#1"/>
    <trip id="15" depart="12.00" from="423591293#0" to="423591315#6"/>
    <trip id="16" depart="12.80" from="-682347520#2" to="58472976#5"/>
    <trip id="17" depart="13.60" from="-423737576" to="1429230139#5"/>
    <trip id="18" depart="14.40" from="423607596#0" to="392064540"/>
    <trip id="19" depart="15.20" from="423627893#1" to="168928124#25"/>
    <trip id="20" depart="16.00" from="369837724#5" to="-1187831398#3"/>
    <trip id="21" depart="16.80" from="-423552784#1" to="-423627890#1"/>
    <trip id="22" depart="17.60" from="-1236547974" to="-423591278#1"/>
    <trip id="23" depart="18.40" from="-1306548303#1" to="-423618526#5"/>
    <trip id="24" depart="19.20" from="1244281423#4" to="-423830440#0"/>
    <trip id="25" depart="20.00" from="-423627897#2" to="-423591128#0"/>
    <trip id="26" depart="20.80" from="-423591055#6" to="423846774"/>
    <trip id="27" depart="21.60" from="1310806701#0" to="374688972"/>
    <trip id="28" depart="22.40" from="-369837701#7" to="423591313#0"/>
    <trip id="29" depart="23.20" from="-257886611#0" to="-423867597#0"/>
    <trip id="30" depart="24.00" from="717096966#5" to="423552730"/>
    <trip id="31" depart="24.80" from="-875114555" to="423590983"/>
    <trip id="32" depart="25.60" from="423618488#0" to="423618516#3"/>
    <trip id="33" depart="26.40" from="-423552786#2" to="-1082004524#2"/>
    <trip id="34" depart="27.20" from="-423607504" to="-423607658#0"/>
    <trip id="35" depart="28.00" from="-423552712#2" to="423867541#1"/>
    <trip id="36" depart="28.80" from="423737633#0" to="-423754766#0"/>
    <trip id="37" depart="29.60" from="1428930768#9" to="-682347520#0"/>
    <trip id="38" depart="30.40" from="423830284" to="1082004525#4"/>
    <trip id="39" depart="31.20" from="-423591049" to="-423607487#0"/>
    <trip id="40" depart="32.00" from="1039518915#1" to="-423607625#1"/>
    <trip id="41" depart="32.80" from="1081345111#1" to="423830307#19"/>
    <trip id="42" depart="33.60" from="-423754663" to="-423591191#0"/>
    <trip id="43" depart="34.40" from="875114549" to="1244283821"/>
    <trip id="44" depart="35.20" from="-1244283821" to="-1187840218#0"/>
    <trip id="45" depart="36.00" from="-1310868441" to="423552678"/>
    <trip id="46" depart="36.80" from="423591203" to="1041332588#2"/>
    <trip id="47" depart="37.60" from="-1187841332#1" to="-423867633#2"/>
    <trip id="48" depart="38.40" from="77645945#2" to="1310869018"/>
    <trip id="49" depart="39.20" from="56723584#22" to="423779447#1"/>
    <trip id="50" depart="40.00" from="-1081309636#3" to="423591265#1"/>
    <trip id="51" depart="40.80" from="168928011#5" to="1428930768#11"/>
    <trip id="52" depart="41.60" from="-423591055#4" to="423552733#1"/>
    <trip id="53" depart="42.40" from="-1311506651" to="1081312724"/>
    <trip id="54" depart="43.20" from="-423830214#8" to="424018567#6"/>
    <trip id="55" depart="44.00" from="423737631#1" to="-423607631#2"/>
    <trip id="56" depart="44.80" from="-423830472#0" to="-423552796#1"/>
    <trip id="57" depart="45.60" from="423830233" to="423779511#1"/>
    <trip id="58" depart="46.40" from="-423591278#4" to="423552724"/>
    <trip id="59" depart="47.20" from="1187840218#0" to="-392064554#2"/>
    <trip id="60" depart="48.00" from="423590908#0" to="1428965077"/>
    <trip id="61" depart="48.80" from="423591118#0" to="1311506084"/>
    <trip id="62" depart="49.60" from="-1038929942#0" to="-423779452"/>
    <trip id="63" depart="50.40" from="-1081317173#3" to="423830471#4"/>
    <trip id="64" depart="51.20" from="423737638#1" to="423754690"/>
    <trip id="65" depart="52.00" from="-423591325#5" to="-1221676676"/>
    <trip id="66" depart="52.80" from="423737637#4" to="423867597#1"/>
    <trip id="67" depart="53.60" from="-1244014568#2" to="1190512353#1"/>
    <trip id="68" depart="54.40" from="-1217006445" to="423607612#1"/>
    <trip id="69" depart="55.20" from="423590916#0" to="-369835648#6"/>
    <trip id="70" depart="56.00" from="-423830319#19" to="1429156792#2"/>
    <trip id="71" depart="56.80" from="-423591049" to="423830183#5"/>
    <trip id="72" depart="57.60" from="-423754777#1" to="-423591153#0"/>
    <trip id="73" depart="58.40" from="-682855175#9" to="423591317#3"/>
    <trip id="74" depart="59.20" from="-423552650#1" to="-423754743#1"/>
    <trip id="75" depart="60.00" from="773114852#2" to="423552776"/>
    <trip id="76" depart="60.80" from="-423779496" to="1282772785#1"/>
    <trip id="77" depart="61.60" from="-1428966208" to="-423591218#0"/>
    <trip id="78" depart="62.40" from="-423607630#2" to="313905501#7"/>
    <trip id="79" depart="63.20" from="-423552792#3" to="-423591192#0"/>
    <trip id="80" depart="64.00" from="-1221676687" to="423552698#0"/>
    <trip id="81" depart="64.80" from="-423552786#0" to="423830320#1"/>
    <trip id="82" depart="65.60" from="423627884#2" to="-1244281422#18"/>
    <trip id="83" depart="66.40" from="-423559473" to="423590902#2"/>
    <trip id="84" depart="67.20" from="-423552718#1" to="-369837718#6"/>
    <trip id="85" depart="68.00" from="423830428#0" to="168927795#3"/>
    <trip id="86" depart="68.80" from="-423830314#2" to="423627855"/>
    <trip id="87" depart="69.60" from="423591299#0" to="-423590900#2"/>
    <trip id="88" depart="70.40" from="-1282725836#1" to="1081309637#0"/>
    <trip id="89" depart="71.20" from="-423754780" to="1082043234#2"/>
    <trip id="90" depart="72.00" from="423552694" to="423590914#1"/>
    <trip id="91" depart="72.80" from="706562594" to="-1428999886#6"/>
    <trip id="92" depart="73.60" from="-423754690" to="-423830214#14"/>
    <trip id="93" depart="74.40" from="423627893#0" to="-423607491#7"/>
    <trip id="94" depart="75.20" from="-374689126" to="1081339997"/>
    <trip id="95" depart="76.00" from="-423754774#2" to="-423627837#10"/>
    <trip id="96" depart="76.80" from="-423590912#21" to="423830433#0"/>
    <trip id="97" depart="77.60" from="-423779522" to="423779447#1"/>
    <trip id="98" depart="78.40" from="-828829280#1" to="-1188021379"/>
    <trip id="99" depart="79.20" from="875150162#0" to="423754719"/>
    <trip id="100" depart="80.00" from="55207561#0" to="423830455#3"/>
    <trip id="101" depart="80.80" from="423618526#1" to="-423552735#0"/>
    <trip id="102" depart="81.60" from="-423830382#2" to="-423591159#3"/>
    <trip id="103" depart="82.40" from="-423754672" to="-1221676677#1"/>
    <trip id="104" depart="83.20" from="-423737576" to="719344206#2"/>
    <trip id="105" depart="84.00" from="-423591049" to="423627852"/>
    <trip id="106" depart="84.80" from="-423830222" to="1049898849#4"/>
    <trip id="107" depart="85.60" from="444065242#0" to="875114550#1"/>
    <trip id="108" depart="86.40" from="-875114550#1" to="423591247#4"/>
    <trip id="109" depart="87.20" from="-168928122#3" to="-423737593#0"/>
    <trip id="110" depart="88.00" from="55207561#0" to="168928126#1"/>
    <trip id="111" depart="88.80" from="-717096960#1" to="423607547#0"/>
    <trip id="112" depart="89.60" from="-1185438184#1" to="235103510#2"/>
    <trip id="113" depart="90.40" from="-423830483#6" to="423754780"/>
    <trip id="114" depart="91.20" from="-168928125#1" to="55207532#1"/>
    <trip id="115" depart="92.00" from="-1236547974" to="-423559514#3"/>
    <trip id="116" depart="92.80" from="1082004537#0" to="423590916#15"/>
    <trip id="117" depart="93.60" from="-423552809#6" to="-207565747#23"/>
    <trip id="118" depart="94.40" from="423754784#0" to="-423607484#0"/>
    <trip id="119" depart="95.20" from="1082004536#0" to="392064554#1"/>
    <trip id="120" depart="96.00" from="-423754767#1" to="235103510#11"/>
    <trip id="121" depart="96.80" from="-423867642" to="423846682#2"/>
    <trip id="122" depart="97.60" from="-423552678" to="423591230#2"/>
    <trip id="123" depart="98.40" from="-423559487" to="-682347520#0"/>
    <trip id="124" depart="99.20" from="1430148142#1" to="-423737611#0"/>
    <trip id="125" depart="100.00" from="-423607509" to="423607567"/>
    <trip id="126" depart="100.80" from="-1221676689" to="1082004524#0"/>
    <trip id="127" depart="101.60" from="875114557#1" to="875114555"/>
    <trip id="128" depart="102.40" from="-1221676694#0" to="-423591159#12"/>
    <trip id="129" depart="103.20" from="-423591049" to="423830488#0"/>
    <trip id="130" depart="104.00" from="423754644#0" to="423830205#9"/>
    <trip id="131" depart="104.80" from="-423627896#8" to="-423552655"/>
    <trip id="132" depart="105.60" from="423607630#1" to="423591159#6"/>
    <trip id="133" depart="106.40" from="1187842981" to="773114852#2"/>
    <trip id="134" depart="107.20" from="423607487#1" to="-423737609#0"/>
    <trip id="135" depart="108.00" from="1428998564#0" to="423867482#0"/>
    <trip id="136" depart="108.80" from="-1450028448" to="-168928122#2"/>
    <trip id="137" depart="109.60" from="-1310806700#2" to="1430148142#2"/>
    <trip id="138" depart="110.40" from="-423591093" to="374688947#4"/>
    <trip id="139" depart="111.20" from="374688983#0" to="-423591052#16"/>
    <trip id="140" depart="112.00" from="1244281422#13" to="-423607639#0"/>
    <trip id="141" depart="112.80" from="-423830394#2" to="423830320#1"/>
    <trip id="142" depart="113.60" from="423618503#4" to="-1428966211"/>
    <trip id="143" depart="114.40" from="-423754780" to="-423618520"/>
    <trip id="144" depart="115.20" from="-1040456806#0" to="423607663#1"/>
    <trip id="145" depart="116.00" from="1244281591#9" to="-423607620#0"/>
    <trip id="146" depart="116.80" from="423552764#0" to="1429230139#5"/>
    <trip id="147" depart="117.60" from="-423779388#5" to="-1081308826"/>
    <trip id="148" depart="118.40" from="-1221676697" to="423830220"/>
    <trip id="149" depart="119.20" from="423830186#1" to="1428999970#14"/>
    <trip id="150" depart="120.00" from="423607638#4" to="207565747#24"/>
    <trip id="151" depart="120.80" from="-165075364#3" to="-369835648#15"/>
    <trip id="152" depart="121.60" from="-423591325#9" to="423830309#0"/>
    <trip id="153" depart="122.40" from="423591221#1" to="423779436"/>
    <trip id="154" depart="123.20" from="423779487" to="-423591128#0"/>
    <trip id="155" depart="124.00" from="-423590912#18" to="-1429156789#5"/>
    <trip id="156" depart="124.80" from="423591128#0" to="423830224"/>
    <trip id="157" depart="125.60" from="-423754708" to="423552642#5"/>
    <trip id="158" depart="126.40" from="-168928122#0" to="423830472#4"/>
    <trip id="159" depart="127.20" from="423737568#0" to="682850825#7"/>
    <trip id="160" depart="128.00" from="423591315#3" to="423830212#6"/>
    <trip id="161" depart="128.80" from="-1081325132#2" to="423607487#1"/>
    <trip id="162" depart="129.60" from="-423607599#0" to="423830479#2"/>
    <trip id="163" depart="130.40" from="423591273#3" to="423779459#1"/>
    <trip id="164" depart="131.20" from="423591315#3" to="-423607656#0"/>
    <trip id="165" depart="132.00" from="423591177#1" to="-165072617#1"/>
    <trip id="166" depart="132.80" from="423737613#1" to="423779404"/>
    <trip id="167" depart="133.60" from="-423552758#4" to="423737612#3"/>
    <trip id="168" depart="134.40" from="-423830257" to="-423737634#0"/>
    <trip id="169" depart="135.20" from="423591219#0" to="-423591234#1"/>
    <trip id="170" depart="136.00" from="-1081325124#1" to="-423590908#4"/>
    <trip id="171" depart="136.80" from="-423607581#1" to="423779459#1"/>
    <trip id="172" depart="137.60" from="55207555" to="-423627838#0"/>
    <trip id="173" depart="138.40" from="1282725843" to="-682855175#0"/>
    <trip id="174" depart="139.20" from="682855176#0" to="1428256669#9"/>
    <trip id="175" depart="140.00" from="423830455#0" to="-168928122#1"/>
    <trip id="176" depart="140.80" from="56723584#12" to="-423552795#3"/>
    <trip id="177" depart="141.60" from="55207530#0" to="-423607650#0"/>
    <trip id="178" depart="142.40" from="-1310807366#2" to="1081312724"/>
    <trip id="179" depart="143.20" from="423552682" to="-423754764#0"/>
    <trip id="180" depart="144.00" from="1185438185#3" to="1244386435"/>
    <trip id="181" depart="144.80" from="-423737598" to="168928124#12"/>
    <trip id="182" depart="145.60" from="-423590921#9" to="423591187#1"/>
    <trip id="183" depart="146.40" from="-1040437648#2" to="423830450#1"/>
    <trip id="184" depart="147.20" from="-682850825#9" to="423591256#1"/>
    <trip id="185" depart="148.00" from="423552771#0" to="423590906#7"/>
    <trip id="186" depart="148.80" from="-423627883#3" to="-1244281270"/>
    <trip id="187" depart="149.60" from="1428999886#7" to="-423779543"/>
    <trip id="188" depart="150.40" from="-423607496" to="423754767#2"/>
    <trip id="189" depart="151.20" from="-423591329#6" to="-717096966#0"/>
    <trip id="190" depart="152.00" from="-423754685" to="-423737590#1"/>
    <trip id="191" depart="152.80" from="-1429146380#0" to="1040437651#2"/>
    <trip id="192" depart="153.60" from="423830460#1" to="423590921#3"/>
    <trip id="193" depart="154.40" from="423830183#0" to="374689139"/>
    <trip id="194" depart="155.20" from="-423591292#9" to="1429146381#2"/>
    <trip id="195" depart="156.00" from="-1038929941#1" to="-423627882#0"/>
    <trip id="196" depart="156.80" from="-423779404" to="202969533#18"/>
    <trip id="197" depart="157.60" from="1428256669#8" to="1082006590"/>
    <trip id="198" depart="158.40" from="-423779511#1" to="-423591159#3"/>
    <trip id="199" depart="159.20" from="-423830316#0" to="423830314#15"/>
    <trip id="200" depart="160.00" from="423591221#0" to="-423552759#2"/>
    <trip id="201" depart="160.80" from="-1238497534#0" to="1275468530#0"/>
    <trip id="202" depart="161.60" from="1244014569#0" to="-423830202#2"/>
    <trip id="203" depart="162.40" from="423607489#3" to="423607563"/>
    <trip id="204" depart="163.20" from="1453802330" to="-423591218#0"/>
    <trip id="205" depart="164.00" from="-423552646#0" to="-1081354410#1"/>
    <trip id="206" depart="164.80" from="-423590899#1" to="1171069355#3"/>
    <trip id="207" depart="165.60" from="423618527#1" to="-1244281591#14"/>
    <trip id="208" depart="166.40" from="-423754740" to="423552691"/>
    <trip id="209" depart="167.20" from="-423830433#1" to="-423591331#1"/>
    <trip id="210" depart="168.00" from="1428965078#0" to="-1053642617#0"/>
    <trip id="211" depart="168.80" from="423552805#1" to="423607656#2"/>
    <trip id="212" depart="169.60" from="-1310806699#2" to="1058944114#1"/>
    <trip id="213" depart="170.40" from="-369837723#0" to="55207529#17"/>
    <trip id="214" depart="171.20" from="-423867597#1" to="-1187842982#0"/>
    <trip id="215" depart="172.00" from="-423590912#13" to="423754767#2"/>
    <trip id="216" depart="172.80" from="-423830236" to="423630760"/>
    <trip id="217" depart="173.60" from="1429146383#1" to="775983600#0"/>
    <trip id="218" depart="174.40" from="1082004537#2" to="423867629#0"/>
    <trip id="219" depart="175.20" from="423754791#3" to="374688986#4"/>
    <trip id="220" depart="176.00" from="374689133" to="1244281271#0"/>
    <trip id="221" depart="176.80" from="423607601" to="1429146381#1"/>
    <trip id="222" depart="177.60" from="423779457" to="423607526"/>
    <trip id="223" depart="178.40" from="-423830319#10" to="-423607596#0"/>
    <trip id="224" depart="179.20" from="-423590906#0" to="423552718#1"/>
    <trip id="225" depart="180.00" from="423590914#9" to="1310004894#0"/>
    <trip id="226" depart="180.80" from="1236550873#2" to="-423618493#2"/>
    <trip id="227" depart="181.60" from="-1236540249#0" to="-423627876#0"/>
    <trip id="228" depart="182.40" from="-423591085" to="-423754792#6"/>
    <trip id="229" depart="183.20" from="-682855180#1" to="-370186849#6"/>
    <trip id="230" depart="184.00" from="-423552796#4" to="423591077"/>
    <trip id="231" depart="184.80" from="370186846#2" to="-1238263787"/>
    <trip id="232" depart="185.60" from="-423754716" to="1428980099#2"/>
    <trip id="233" depart="186.40" from="-423754748#3" to="-423591065#0"/>
    <trip id="234" depart="187.20" from="-423754769#2" to="423830319#8"/>
    <trip id="235" depart="188.00" from="1081330644#1" to="423591085"/>
    <trip id="236" depart="188.80" from="423627876#0" to="423607639#2"/>
    <trip id="237" depart="189.60" from="-423737584" to="-1057801349#0"/>
    <trip id="238" depart="190.40" from="-423618526#2" to="423607576#1"/>
    <trip id="239" depart="191.20" from="423627841#16" to="424018547#3"/>
    <trip id="240" depart="192.00" from="-423754766#3" to="423607545#3"/>
    <trip id="241" depart="192.80" from="-717522307#3" to="370186850#1"/>
    <trip id="242" depart="193.60" from="-423552749#1" to="-423591191#0"/>
    <trip id="243" depart="194.40" from="-423779462" to="-1082004513#1"/>
    <trip id="244" depart="195.20" from="-423607618#2" to="423590942"/>
    <trip id="245" depart="196.00" from="-423754693" to="-423552727"/>
    <trip id="246" depart="196.80" from="-423830299" to="-369835648#18"/>
    <trip id="247" depart="197.60" from="1221676680" to="-1081986744#0"/>
    <trip id="248" depart="198.40" from="-423737632#2" to="165073707"/>
    <trip id="249" depart="199.20" from="-1081329787" to="423552747#1"/>
    <trip id="250" depart="200.00" from="-165071962#1" to="1082004544#4"/>
    <trip id="251" depart="200.80" from="-1082233882" to="-423867581#1"/>
    <trip id="252" depart="201.60" from="-423552715#12" to="-423779487"/>
    <trip id="253" depart="202.40" from="423590904#0" to="-423867581#2"/>
    <trip id="254" depart="203.20" from="423552807#6" to="423754693"/>
    <trip id="255" depart="204.00" from="-423590916#2" to="-1310806334#1"/>
    <trip id="256" depart="204.80" from="-1081317173#1" to="1428965077"/>
    <trip id="257" depart="205.60" from="875150164#8" to="-423830319#3"/>
    <trip id="258" depart="206.40" from="1311507436" to="423627840#3"/>
    <trip id="259" depart="207.20" from="1311513528" to="423607581#1"/>
    <trip id="260" depart="208.00" from="423867531" to="-423590921#4"/>
    <trip id="261" depart="208.80" from="-1081317175" to="-392064547"/>
    <trip id="262" depart="209.60" from="-1428999970#6" to="423590902#9"/>
    <trip id="263" depart="210.40" from="1041332590" to="-423591186#0"/>
    <trip id="264" depart="211.20" from="369837703#1" to="423607646#4"/>
    <trip id="265" depart="212.00" from="-369835648#11" to="374688962#1"/>
    <trip id="266" depart="212.80" from="423552794#3" to="-168928009#7"/>
    <trip id="267" depart="213.60" from="423607493#2" to="55207554#1"/>
    <trip id="268" depart="214.40" from="-1310807366#2" to="-1081675933#10"/>
    <trip id="269" depart="215.20" from="-423607487#7" to="423590921#4"/>
    <trip id="270" depart="216.00" from="449402545#0" to="-682348188#0"/>
    <trip id="271" depart="216.80" from="374688975#0" to="-1244535324#2"/>
    <trip id="272" depart="217.60" from="235103510#14" to="423552678"/>
    <trip id="273" depart="218.40" from="-1306849654#0" to="423618476#4"/>
    <trip id="274" depart="219.20" from="423627837#7" to="369837726#5"/>
    <trip id="275" depart="220.00" from="-1428966208" to="717522306#4"/>
    <trip id="276" depart="220.80" from="423591156#0" to="-423830314#5"/>
    <trip id="277" depart="221.60" from="-423779393#8" to="-423830472#5"/>
    <trip id="278" depart="222.40" from="-423846683#3" to="-423830259"/>
    <trip id="279" depart="223.20" from="423618526#9" to="423737631#4"/>
    <trip id="280" depart="224.00" from="-1310806330#4" to="55207532#1"/>
    <trip id="281" depart="224.80" from="1244281423#3" to="423754667"/>
    <trip id="282" depart="225.60" from="370186849#0" to="1081314488"/>
    <trip id="283" depart="226.40" from="423552721#0" to="55207560#0"/>
    <trip id="284" depart="227.20" from="-423591077" to="423737586"/>
    <trip id="285" depart="228.00" from="-682850825#4" to="1187841331"/>
    <trip id="286" depart="228.80" from="-423779459#1" to="423591321#3"/>
    <trip id="287" depart="229.60" from="-423591060#9" to="423754775#2"/>
    <trip id="288" depart="230.40" from="423607601" to="-1311513528"/>
    <trip id="289" depart="231.20" from="423754650#0" to="-423591329#7"/>
    <trip id="290" depart="232.00" from="-423830282" to="374688977#5"/>
    <trip id="291" depart="232.80" from="-423737576" to="-1082004512#0"/>
    <trip id="292" depart="233.60" from="423627838#0" to="-423552806#2"/>
    <trip id="293" depart="234.40" from="-423552715#19" to="423630750#0"/>
    <trip id="294" depart="235.20" from="-423607643#0" to="423830207#8"/>
    <trip id="295" depart="236.00" from="369837718#0" to="-423618520"/>
    <trip id="296" depart="236.80" from="-1081308071#1" to="423867599#3"/>
    <trip id="297" depart="237.60" from="-1244014568#2" to="423591260#1"/>
    <trip id="298" depart="238.40" from="-423830394#2" to="423607602#1"/>
    <trip id="299" depart="239.20" from="235103510#14" to="423552760#1"/>
    <trip id="300" depart="240.00" from="-423830410#2" to="423627890#3"/>
    <trip id="301" depart="240.80" from="-1244386435" to="-423591199#0"/>
    <trip id="302" depart="241.60" from="235115525#11" to="-423737638#0"/>
    <trip id="303" depart="242.40" from="1081324031#0" to="1170526501"/>
    <trip id="304" depart="243.20" from="-55207559#0" to="1070111904#1"/>
    <trip id="305" depart="244.00" from="423552787#2" to="-423830183#1"/>
    <trip id="306" depart="244.80" from="369837722#3" to="-423618476#0"/>
    <trip id="307" depart="245.60" from="-423590914#3" to="-207565747#6"/>
    <trip id="308" depart="246.40" from="-374689138" to="-207565747#19"/>
    <trip id="309" depart="247.20" from="-58472973#3" to="423607618#2"/>
    <trip id="310" depart="248.00" from="-374688965#2" to="-423591168#0"/>
    <trip id="311" depart="248.80" from="-423830368#2" to="423591288#3"/>
    <trip id="312" depart="249.60" from="682347520#0" to="1310806330#4"/>
    <trip id="313" depart="250.40" from="-423591182#1" to="-1429146380#10"/>
    <trip id="314" depart="251.20" from="-370186846#0" to="-1081314937"/>
    <trip id="315" depart="252.00" from="-58379809#3" to="-423618492#4"/>
    <trip id="316" depart="252.80" from="58472974#0" to="1430148142#5"/>
    <trip id="317" depart="253.60" from="369835648#25" to="-316542827#0"/>
    <trip id="318" depart="254.40" from="423737593#0" to="1221676687"/>
    <trip id="319" depart="255.20" from="423737615#0" to="168928009#8"/>
    <trip id="320" depart="256.00" from="-423830307#20" to="1081319614#1"/>
    <trip id="321" depart="256.80" from="-374688962#1" to="-1210947564"/>
    <trip id="322" depart="257.60" from="423830464#0" to="1185438185#1"/>
    <trip id="323" depart="258.40" from="423607540" to="-682855176#2"/>
    <trip id="324" depart="259.20" from="-1221676696#0" to="423552691"/>
    <trip id="325" depart="260.00" from="-1170607403" to="-374688986#1"/>
    <trip id="326" depart="260.80" from="1041332588#0" to="-423737630#0"/>
    <trip id="327" depart="261.60" from="759808206" to="-168928125#7"/>
    <trip id="328" depart="262.40" from="423590912#22" to="374688960#2"/>
    <trip id="329" depart="263.20" from="423591196#0" to="-423591219#0"/>
    <trip id="330" depart="264.00" from="-423867641#4" to="1081350006#2"/>
    <trip id="331" depart="264.80" from="-423779520" to="423779436"/>
    <trip id="332" depart="265.60" from="717522305#0" to="-423737635#0"/>
    <trip id="333" depart="266.40" from="1221676677#0" to="374688974#1"/>
    <trip id="334" depart="267.20" from="423552762#0" to="423867599#2"/>
    <trip id="335" depart="268.00" from="-423552692" to="-423591141#1"/>
    <trip id="336" depart="268.80" from="1428974755#1" to="-423552652#12"/>
    <trip id="337" depart="269.60" from="-369837718#10" to="-1244504773#2"/>
    <trip id="338" depart="270.40" from="-1040437651#1" to="1081350006#2"/>
    <trip id="339" depart="271.20" from="1082004533#0" to="-423627898#1"/>
    <trip id="340" depart="272.00" from="-423552797#1" to="423591178#1"/>
    <trip id="341" depart="272.80" from="369837722#5" to="1081986743#1"/>
    <trip id="342" depart="273.60" from="202969533#27" to="423830438#3"/>
    <trip id="343" depart="274.40" from="423591186#0" to="423552656"/>
    <trip id="344" depart="275.20" from="1428980099#3" to="423830489#0"/>
    <trip id="345" depart="276.00" from="-423754787#1" to="1428999886#1"/>
    <trip id="346" depart="276.80" from="1310806701#0" to="423830338#2"/>
    <trip id="347" depart="277.60" from="423607573#0" to="-1244281422#6"/>
    <trip id="348" depart="278.40" from="-313906349#0" to="-423737640#5"/>
    <trip id="349" depart="279.20" from="423552798#2" to="168927425#9"/>
    <trip id="350" depart="280.00" from="-423591223" to="-257886611#3"/>
    <trip id="351" depart="280.80" from="207565747#17" to="423591137#0"/>
    <trip id="352" depart="281.60" from="423830471#3" to="1238263785#0"/>
    <trip id="353" depart="282.40" from="-423830430#3" to="-1310796977#0"/>
    <trip id="354" depart="283.20" from="-1082004535" to="1081309638#3"/>
    <trip id="355" depart="284.00" from="-423607547#0" to="-423607519"/>
    <trip id="356" depart="284.80" from="-1244283821" to="55207541"/>
    <trip id="357" depart="285.60" from="423607650#0" to="168928122#0"/>
    <trip id="358" depart="286.40" from="423867581#0" to="875163347"/>
    <trip id="359" depart="287.20" from="1430446993#0" to="-423607665"/>
    <trip id="360" depart="288.00" from="-1082004536#1" to="423607588#1"/>
    <trip id="361" depart="288.80" from="-423830309#13" to="423552784#3"/>
    <trip id="362" depart="289.60" from="423830307#18" to="-423552805#4"/>
    <trip id="363" depart="290.40" from="1081350006#0" to="423552715#13"/>
    <trip id="364" depart="291.20" from="-423830415#2" to="-1428965770#0"/>
    <trip id="365" depart="292.00" from="-423618491#0" to="-423830192#3"/>
    <trip id="366" depart="292.80" from="1429169114#3" to="423779393#9"/>
    <trip id="367" depart="293.60" from="-423607584#1" to="423591070#0"/>
    <trip id="368" depart="294.40" from="-423591221#2" to="423867581#4"/>
    <trip id="369" depart="295.20" from="423591327#5" to="1429156792#6"/>
    <trip id="370" depart="296.00" from="-423830222" to="-423754766#0"/>
    <trip id="371" depart="296.80" from="-423607551#1" to="58379809#15"/>
    <trip id="372" depart="297.60" from="-423754693" to="1244548806"/>
    <trip id="373" depart="298.40" from="717096964#0" to="423552809#2"/>
    <trip id="374" depart="299.20" from="-717096965#1" to="-759808206"/>
    <trip id="375" depart="300.00" from="-374688977#5" to="-423830418#2"/>
    <trip id="376" depart="300.80" from="423559522#3" to="423552660"/>
    <trip id="377" depart="301.60" from="423590900#2" to="-423591052#16"/>
    <trip id="378" depart="302.40" from="-773114852#4" to="423830464#2"/>
    <trip id="379" depart="303.20" from="-423779497#0" to="423591131#1"/>
    <trip id="380" depart="304.00" from="-1428966636#0" to="58472976#5"/>
    <trip id="381" depart="304.80" from="1187840218#0" to="-423591309#4"/>
    <trip id="382" depart="305.60" from="-168928125#7" to="1429169114#2"/>
    <trip id="383" depart="306.40" from="-845730040" to="-1428966638"/>
    <trip id="384" depart="307.20" from="717522308#4" to="423830367#1"/>
    <trip id="385" depart="308.00" from="-423830268" to="-168928124#25"/>
    <trip id="386" depart="308.80" from="423607614#0" to="1236547974"/>
    <trip id="387" depart="309.60" from="374688982#0" to="1244282923#0"/>
    <trip id="388" depart="310.40" from="-423591120" to="423754715"/>
    <trip id="389" depart="311.20" from="682855175#0" to="-423591329#5"/>
    <trip id="390" depart="312.00" from="-845729932" to="-424018524#0"/>
    <trip id="391" depart="312.80" from="423830319#2" to="1244281591#14"/>
    <trip id="392" depart="313.60" from="423737640#1" to="423779459#1"/>
    <trip id="393" depart="314.40" from="-423591146#1" to="423627880#1"/>
    <trip id="394" depart="315.20" from="-423754742#1" to="423846682#2"/>
    <trip id="395" depart="316.00" from="-423846788#1" to="423737626#3"/>
    <trip id="396" depart="316.80" from="-423591180#0" to="-423737608"/>
    <trip id="397" depart="317.60" from="1081675933#2" to="875150164#2"/>