<?xml version='1.0' encoding='UTF-8'?>
<routes xmlns:xsi="http://www.w3.org/2001/XMLSchema-instance" xsi:noNamespaceSchemaLocation="http://sumo.dlr.de/xsd/routes_file.xsd">
    <vehicle id="0" depart="0.00" type="cng">
        <route edges="-207901668#7 -207901668#6 -207901668#5 -207901668#4 -207901668#3 -207901668#2 -207901668#1 -207901668#0 755113388#13 755113388#14 755113388#15 755113388#16 755113388#17 755113388#18 1075642993 568057022#0 568057022#1 568057022#2 95222417#0 95222417#1 95222417#2 95222417#3 95222417#4 95222417#5 95222417#6 95222417#7 95222417#8 95222417#9 64384020#0 64384020#1 64384020#2 64384020#3 64384020#4 64384020#5 64384020#6 99047745#0 99047745#1 99047745#2 -99047705#21 -696139695#4 -696139695#3 -696139695#2 696139693#0 696139693#1 696139693#2 -1355016526 -1255881481 -1255881480#1 -1255881480#0 -1152278970#0 -1219692248#5 -1219692248#4 -696668030#1 833807363#0 833807363#1 833807363#2 833807363#3 833807363#4 833807363#5 833807364#3 833823518#0 833823518#1 833823518#2 833823518#3 833823518#4 833823518#5 833823518#6 833823518#7" />
    </vehicle>
    <vehicle id="1" depart="0.80" type="cng">
        <route edges="753829654#1 -753829654#1 -753829654#0 -1149522245#15 -1149522245#14 -1149522245#13 -1149522245#12 -1149522245#11 -1149522245#10 -1149522245#9 -1149522245#8 -1149522245#7 -1149522245#6 -1149522245#5 -1149522245#4 -1149522245#3 -1149522245#2 -1149522245#1 1375776893#9 1375776893#10 1375776897 1375776894#0 1375776894#1 1375776894#2 1375776894#3 1375776894#4 1375776894#5 1375776894#6 1375776894#7 1375776894#8 1375776894#9 1375776894#10 1375776894#11 1375776894#12 1375776894#13 1375776894#14 1375776894#15 1375776894#16 1375776894#17 1375776894#18 1375776894#19 1375776894#20 1375776894#21 1375776894#22 1375776894#23 1375776894#24 1375776894#25 1375776894#26 1375776894#27 1375776894#28 1375776894#29 1375776894#30 1375776894#31 1375776894#32 1375776894#33 1375776894#34 1375776894#35 1374069457 1154675019#0 1154675019#1 1154675019#2 1193709249#0 1193709249#1 1139100124#0 1139100124#1 1139100124#2 1139100125#0 1139100125#1 1374068861 1139100126 1203906301#0 1203906301#1 1203906300#0 1203906300#1 1203906300#2 1203906300#3 1203906300#4 1203906300#5 1203906300#6 1203906300#7 1203906300#8 1203906300#9 1203906300#10 1203906300#11 1203906300#12 1203906300#13 1152506083#0 1152506083#1 1152506083#2 1229229406 1152506082#0 1152506082#1 1152506082#2 1152506082#3 1152506082#4 1152506082#5 1152506082#6 1152506082#7 755113388#0 755113388#1 755113388#2 755113388#3 755113388#4 755113388#5 755113388#6 755113388#7 1088370828 1080757453#10 725144648 -99029690#2 -99029690#1 -99029690#0 -1253159051 -1253159050 1122076322 836283626#0 836283626#1 836283626#2 836283626#3 -765739205#1 -765739205#0" />
    </vehicle>
    <vehicle id="2" depart="1.60" type="cng">
        <route edges="-99052499#10 -99052499#9 -99052499#8 -99052499#7 -99052499#6 -99052499#5 -99052499#4 -99052499#3 -99052499#2 -99052499#1 -99052499#0 -99052521#6 -99052521#5 -99052521#4 -99052521#3 -99052521#2 -835647684#2 -835647684#1 -835647684#0 -1152343709#3 -1152343709#2 -1152343709#1 -1152343709#0 -835639866 1449305538#8 1080757453#5 1080757453#6 1080757453#7 1080757453#8 1080757453#9 1080757453#10 1230246874#0 1230246874#1 1230246874#2 1230246874#3 1230246874#4 1230246874#5 1230246874#6 1230246874#7 1230246873 1230246872#0 1230246872#1 1230246872#2 95222430#0 95222430#1 95222430#2 95222430#3 95222430#4 95222430#5 -667068898 98357300#7 98357300#8 -207897663#11 -207897663#10 -207897663#9 -207897663#8 -207897663#7 -207897663#6 -207897663#5 -207897663#4 207897643#0 207897643#1 836693682#0 836693682#1 -836693682#1 -836693682#0" />
    </vehicle>
    <vehicle id="3" depart="2.40" type="cng">
        <route edges="35460672#2 -35460672#2 -35460672#1 -35460672#0 -35460667#0 -35460675#4 -35460675#3 -35460675#2 -35460675#1 -35460675#0 188582607#0 188582607#1 188582607#2 188582607#3 -188574988#2 -188574988#1 35460609#6 35460609#7 35460609#8 35460609#9 35460609#10 35460609#11 1075642994 1075642992 1080757453#2 1080757453#3 1080757453#4 1080757453#5 1080757453#6 1080757453#7 1080757453#8 1080757453#9 -1088370828 755113388#8 755113388#9 -207901674#2 -207901674#1 -207901674#0 750619639#0 750619639#1 750619639#2 123059916#3 123059916#4 123059916#5 -123059914#1 -123059914#0 1152506081#0 1152506081#1 1152506080 1152506078#0 1152506078#1 -1203906300#13 -1203906300#12 -1203906300#11 -1203906300#10 -1203906300#9 -1203906300#8 -1203906300#7 -1203906300#6 -1203906300#5 -1203906300#4 -1203906300#3 -1203906300#2 -1203906300#1 -1203906300#0 -1203906301#1 -1203906301#0 -1139100126 1139100127 1203906302#0 1203906302#1 1203906302#2 1203906302#3 1203906302#4 1203906302#5 1203906302#6 1203906302#7 1203906302#8 1203906302#9 1203906302#10 1203906302#11 1203906302#12 1203906302#13 1203906302#14 1203906302#15 1203906302#16 1374069456 -1375776894#35 -1375776894#34 -1375776894#33 -1375776894#32 -1375776894#31 -1375776894#30 -1375776894#29 -1375776894#28 -1375776894#27 -1375776894#26 -1375776894#25 -1375776894#24 -1375776894#23 -1375776894#22 -1375776894#21 -1375776894#20 -1375776894#19 -1375776894#18 -1375776894#17 -1375776894#16 -1375776894#15 -1375776894#14 -1375776894#13 -1375776894#12 -1375776894#11 -1375776894#10 -1375776894#9 -1375776894#8 -1375776894#7 -1375776894#6 -1375776894#5 -1375776894#4 -1375776894#3 -1375776894#2 -1375776894#1 -1375776894#0 1375776895#0 1375776895#1 1375776895#2 1149522245#0 1149522245#1 1149522245#2 1149522245#3 1149522245#4 1149522245#5 1149522245#6 1149522245#7 1149522245#8 1149522245#9 1149522245#10 1149522245#11 1149522245#12 1149522245#13 1149522245#14 -384853658 -384853657#10 -384853657#9 -384853657#8 384853656#5 -755060226 -755060231#1 828722152#0" />
    </vehicle>
    <vehicle id="4" depart="3.20" type="cng">
        <route edges="-1388420101#0 1388420101#0 1388420101#1 -641906000#4 -641906000#3 -641906000#2 -832551872#1 -832551872#0 832551873#2 -828387571#0 -1152278959#1 -1152278959#0 99047739#0 99047739#1 99047739#2 99047739#3 99047739#4 99047739#5 99047739#6 99047739#7 99047739#8 99047739#9 99047739#10 99047739#11 99047739#12 99047739#13 99047739#14 99047739#15 99047739#16 99047739#17 99047739#18 99047739#19 99047739#20 99047739#21 99047739#22 99047739#23 99047739#24 99047739#25 99047739#26 1219692249#0 1219692249#1 1219692249#2 1219692249#3 565282632#0 565282632#1 565282632#2 565282632#3 696139686#0 696139686#1 -696139688#2 -696139688#1 -696139688#0 -696139693#7 -696139693#6 -696139693#5 833823512#0 -696139661#1 -696139661#0 -696139663#1 -696139663#0 696139695#3 696139695#4 99047705#21 -99047745#2 -99047745#1 -99047745#0 -64384020#6 -64384020#5 -64384020#4 -64384020#3 -64384020#2 -64384020#1 47572742#11 47572742#12 47572742#13 47572742#14 47572742#15 47572742#16 1080757453#0 1080757453#1 1080757453#2 99052555#0 99052555#1 99052555#2 99052555#3 99052555#4 99052555#5 1169540847#0 1169540847#1 -1169540830#5 -1169540830#4 -1169540827#4 -1169540837#1 -1169540838" />
    </vehicle>
    <vehicle id="5" depart="4.00" type="cng">
        <route edges="832854938 832562999#0 832562999#1 832562999#2 832562999#3 32067447#21 32067447#22 32067447#23 32067447#24 32067447#25 32067447#26 32067447#27 32067447#28 32067447#29 32067447#30 32067447#31 32067447#32 -1151579614#10 -1151579614#9 -1151579614#8 -1151579614#7 -1151579614#6 -1151579614#5 -1151579614#4 -1151579614#3 -1151579614#2 -1151579614#1 -1151579614#0 -32067475#10 -32067475#9 -32067475#8 -32067475#7 -32067475#6 -32067475#5 -32067475#4 -32067475#3 -32067475#2 -32067475#1 -32067475#0 -535357189 836266311#0 836266311#1 836266311#2 836266311#3 -535357190 -64398241#3 -64398241#2 -64398241#1 -64398241#0 1230246872#0 1230246872#1 1230246872#2 95222430#0 95222430#1 95222430#2 207897665#0 -207897650#2 -207897650#1 -207897650#0 -207897662#0 -1230273047#3 -1230273047#2 -836279121" />
    </vehicle>
    <vehicle id="6" depart="4.80" type="cng">
        <route edges="753181576#3 753181576#4 -753181576#4 -753181576#3 -753181576#2 -753181576#1 -753181576#0 755113388#6 755113388#7 755113388#8 755113388#9 755113388#10 755113388#11 755113388#12 207901668#0 207901668#1 207901668#2 207901668#3 207901668#4 207901668#5 207901668#6 207901668#7 207901668#8 207901668#9 207901668#10 207901668#11 207901668#12 207901668#13 207901668#14 207901668#15 207901668#16 207901668#17 207901668#18 207901668#19 207901668#20 207901668#21 207901668#22 207901668#23 207901668#24 207901668#25 207901668#26 207901668#27 207901668#28 207901668#29 207901668#30 207901668#31 207901668#32 207901668#33 207901668#34 207901668#35 207901668#36 207901668#37 207901668#38 207901668#39 -333532902#2 -333532902#1 -333532902#0 -34996537#1 -34996537#0 -723373512#9 -723373512#8 -723373512#7 -723373512#6 -723373512#5 -723373512#4 -723373512#3 -723373512#2 -723373512#1 -723373512#0 -102309332#9 -102309332#8" />
    </vehicle>
    <vehicle id="7" depart="5.60" type="cng">
        <route edges="-836064622#9 -836064622#8 -836064622#7 -836064622#6 -836064622#5 -836064622#4 -836064622#3 -836064622#2 -836064622#1 -836064622#0 -836071524#1 1431099969#0 1431099969#1 1431099970 836077327#0 836077327#1 836077327#2 -836077326#0 676314767#7 676314767#8 -836304923 676314770#4 -836077322#0 676314773#3 676314773#4 676314773#5 676314773#6 -99052521#3 -99052521#2 -835647684#2 -835647684#1 -835647684#0 -1152343709#3 -1152343709#2 -1152343709#1 -1152343709#0 -835639866 1449305538#8 1080757453#5 1080757453#6 1080757453#7 1080757453#8 1080757453#9 -1088370828 755113388#8 755113388#9 755113388#10 755113388#11 755113388#12 207901668#0 207901668#1 207901668#2 207901668#3 207901668#4 207901668#5 207901668#6 207901668#7 207901668#8 207901668#9 207901668#10 207901668#11 207901668#12 207901668#13 207901668#14 207901668#15 207901668#16 207901668#17 207901668#18 207901668#19 207901668#20 207901668#21 207901668#22 207901668#23 207901668#24 207901668#25 207901668#26 207901668#27 207901668#28 207901668#29 207901668#30 207901668#31 207901668#32 207901668#33 207901668#34 207901668#35 207901668#36 207901668#37 207901668#38 207901668#39 -333532902#2 -333532902#1 -333532902#0 -34996537#1 -34996537#0 -723373512#9 -723373512#8 -723373512#7 -723373512#6 -723373512#5 -723373512#4 -723373512#3 -723373512#2 -723373512#1 -723373512#0 102309332#10 102309332#11 102309332#12 102309332#13 102309332#14 102309332#15 102309332#16 102309332#17 102309332#18 102309332#19 102309332#20 102309332#21 676069752#0 676069752#1 676069752#2" />
    </vehicle>
    <vehicle id="8" depart="6.40" type="cng">
        <route edges="-673287686#3 -673287686#2 -673287686#1 -673287686#0 102309346#0 102309346#1 -673287687 835994684#0 835994684#1 835994684#2 835994684#3 1349157157#0 1349157157#1 673262235 835791097#0 47572742#8 47572742#9 47572742#10 47572742#11 47572742#12 47572742#13 47572742#14 47572742#15 47572742#16 1080757453#0 1080757453#1 1080757453#2 1080757453#3 1080757453#4 1080757453#5 1080757453#6 1080757453#7 1080757453#8 1080757453#9 1080757453#10 1230246874#0 1230246874#1 1230246874#2 1230246874#3 1230246874#4 1230246874#5 1230246874#6 1230246874#7 1230246873 64398241#0 64398241#1 64398241#2 64398241#3 535357190 -836266311#3 -836266311#2 -836266311#1 535357192 535357191 207897653#0 207897653#1 207897653#2 207897661#0 207897661#1 207897661#2 207897661#3 207897661#4 836266321 836266320#1 836262032" />
    </vehicle>
    <vehicle id="9" depart="7.20" type="cng">
        <route edges="835804712 -64400856#1 -64400856#0 64384034#0 64384034#1 64384034#2 64384034#3 64384034#4 64384034#5 64384034#6 64384034#7 64384034#8 64386703#0 64386703#1 64386703#2 835994685#0 835994685#1 835994685#2 95222417#9 64384020#0 47572742#11 47572742#12 47572742#13 47572742#14 47572742#15 47572742#16 1080757453#0 1080757453#1 1080757453#2 1080757453#3 1080757453#4 1080757453#5 1080757453#6 1080757453#7 1080757453#8 1080757453#9 -1088370828 755113388#8 755113388#9 -207901674#2 -207901674#1 -207901674#0 1189376963 -1189376963" />
    </vehicle>
    <vehicle id="10" depart="8.00" type="cng">
        <route edges="-1153909092#1 -1153909092#0 -122087024#2 -122087024#1 -122087024#0 1203906300#10 1203906300#11 1203906300#12 1203906300#13 1152506083#0 1152506083#1 1152506083#2 1229229406 1152506082#0 1152506082#1 1152506082#2 1152506082#3 1152506082#4 1152506082#5 1152506082#6 1152506082#7 755113388#0 755113388#1 755113388#2 755113388#3 755113388#4 755113388#5 755113388#6 755113388#7 755113388#8 755113388#9 755113388#10 755113388#11 755113388#12 755113388#13 755113388#14 755113388#15 755113388#16 755113388#17 755113388#18 1075642993 568057022#0 568057022#1 568057022#2 95222417#0 95222417#1 95222417#2 95222417#3 95222417#4 95222417#5 95222417#6 95222417#7 95222417#8 95222417#9 64384020#0 64384020#1 64384020#2 64384020#3 64384020#4 64384020#5 64384020#6 99047745#0 99047745#1 99047745#2 99047707#0 99047707#1 99047707#2 99047707#3 99047707#4 99047707#5 99047707#6 99047707#7 99047707#8 99047707#9 99047707#10 99047707#11 -833830093#6 -833830093#5 -833830093#4 -833830093#3 -833830093#2 -833830093#1 1254818475#0" />
    </vehicle>
    <vehicle id="11" depart="8.80" type="cng">
        <route edges="836064630#2 -836064628#1 -836064628#0 1151579614#2 1151579614#3 1151579614#4 1151579614#5 1151579614#6 1151579614#7 1151579614#8 1151579614#9 1151579614#10 -32067447#32 -32067447#31 -32067447#30 -32067447#29 -32067447#28 -32067447#27 -32067447#26 -32067447#25 -32067447#24 -32067447#23 -32067447#22 -32067447#21 -32067447#20 -32067447#19 -32067447#18 -32067447#17 -32067447#16 -32067447#15 -32067447#14 -32067447#13 -32067447#12 -32067447#11 -32067447#10 -32067447#9 -32067447#8 -32067447#7 -32067447#6 -32067447#5 -32067447#4 -32067447#3 -32067447#2 -32067447#1 -32067447#0 -832563003 -832563004#17 -832563004#16 -832563004#15 -832563004#14 -832563004#13 -832563004#12 -832563004#11 -832563004#10 -832563004#9 -832563004#8 -832563004#7 -832563004#6 -832563004#5 -832563004#4 -832563004#3 -832563004#2 -832563004#1 -832563004#0 99047739#17 99047739#18 99047739#19 99047739#20 99047739#21 99047739#22 99047739#23 99047739#24 99047739#25 99047739#26 1219692249#0 1219692249#1 1219692249#2 1219692249#3 565282632#0 565282632#1 565282632#2 565282632#3 565282632#4 565282632#5 565282632#6 565282632#7 1152278970#0 1152278970#1 1152278970#2 1152278970#3 1152278970#4 1152278970#5 1152278970#6 1152278970#7 1152278970#8 1152278970#9 1152278970#10 1152278970#11 1152278970#12 1152278970#13 1152278970#14 1152278970#15 1152278970#16 1152278970#17 99047705#0 99047705#1 99047705#2 -835798095#2" />
    </vehicle>
    <vehicle id="12" depart="9.60" type="cng">
        <route edges="-641906002#7 -641906002#6 -641906002#5 -641906002#4 -641906002#3 -641906002#2 -641906002#1 -641906002#0 -832854916 -832854917#1 -832854917#0 32067447#8 32067447#9 32067447#10 32067447#11 32067447#12 32067447#13 32067447#14 32067447#15 32067447#16 32067447#17 32067447#18 32067447#19 32067447#20 32067447#21 32067447#22 32067447#23 32067447#24 32067447#25 32067447#26 32067447#27 32067447#28 32067447#29 32067447#30 32067447#31 32067447#32 -1151579614#10 -1151579614#9 -1151579614#8 -1151579614#7 -1151579614#6 -1151579614#5 -99052499#49 -99052499#48 -99052499#47 -99052499#46 -99052499#45 -99052499#44 -99052499#43 -99052499#42 -99052499#41 -99052499#40 -99052499#39 -99052499#38 -99052499#37 -99052499#36 -99052499#35 -99052499#34 -99052499#33 -99052499#32 -99052499#31 -99052499#30 -99052499#29 -99052499#28 -99052499#27 -99052499#26 -99052499#25 -99052499#24 -99052499#23 -99052499#22 -99052499#21 -99052499#20 -99052499#19 -99052499#18 -99052499#17 -99052499#16 -99052499#15 -99052499#14 -99052499#13 -99052499#12 -99052499#11 -99052499#10 -99052499#9 -99052499#8 -99052499#7 -99052499#6 -99052499#5 -99052499#4 -99052499#3 -99052499#2 -836064633" />
    </vehicle>
    <vehicle id="13" depart="10.40" type="cng">
        <route edges="-1169540830#1 -1169540830#0 99052521#0 99052521#1 -835647684#2 -835647684#1 -835647684#0 -1152343709#3 -1152343709#2 -1152343709#1 -1152343709#0 -835639866 1449305538#8 1080757453#5 1080757453#6 1080757453#7 1080757453#8 1080757453#9 -1088370828 755113388#8 755113388#9 755113388#10 755113388#11 755113388#12 755113388#13 755113388#14 755113388#15 755113388#16 755113388#17 755113388#18 1075642993 568057022#0 568057022#1 568057022#2 95222417#0 95222417#1 95222417#2 95222417#3 95222417#4 95222417#5 95222417#6 95222417#7 95222417#8 95222417#9 64384020#0 64384020#1 64384020#2 64384020#3 64384020#4 64384020#5 64384020#6 99047745#0 99047745#1 99047745#2 -99047705#21 -99047705#20 -99047705#19 -99047705#18 -99047705#17 -99047705#16 -99047705#15 -99047705#14 696139658#0 696139657 -696139660#2 696139650#0 -696139644" />
    </vehicle>
    <vehicle id="14" depart="11.20" type="cng">
        <route edges="-836046070#0 -385085297#6 -385085297#5 -385085297#4 -385085297#3 -385085297#2 -385085297#1 -385085297#0 -32067475#9 -32067475#8 -32067475#7 -32067475#6 -32067475#5 -32067475#4 -32067475#3 -32067475#2 -32067475#1 -32067475#0 -535357189 836266311#0 836266311#1 836266311#2 836266311#3 -535357190 -64398241#3 -64398241#2 -64398241#1 -64398241#0 1230246872#0 1230246872#1 1230246872#2 95222430#0 95222430#1 95222430#2 95222430#3 95222430#4 95222430#5 -667068898 98357300#7 98357300#8 98357300#9 98357300#10 1081040286#0 1081040286#1 1081040286#2 1081040286#3 1080757448#0 1080757448#1 1080757448#2 1080757448#3 755113388#0 755113388#1 755113388#2 755113388#3 755113388#4 755113388#5 755113388#6 755113388#7 755113388#8 755113388#9 755113388#10 755113388#11 755113388#12 755113388#13 755113388#14 755113388#15 755113388#16 755113388#17 -628760983#6 -566876507#2 -566876507#1 -566876507#0 -35460609#11 767926891#0 767926890#0 767926889#0 767926888#0 835671669 1127729603#0 1127729604" />
    </vehicle>
    <vehicle id="15" depart="12.00" type="cng">
        <route edges="-676314766#0 676314770#3 676314770#4 -836077322#0 676314773#3 676314773#4 676314773#5 676314773#6 -99052521#3 -99052521#2 -835647684#2 -835647684#1 -835647684#0 -1152343709#3 -1152343709#2 -1152343709#1 -1152343709#0 -835639866 1449305538#8 1080757453#5 1080757453#6 1080757453#7 1080757453#8 1080757453#9 1080757453#10 1230246874#0 1230246874#1 1230246874#2 1230246874#3 1230246874#4 1230246874#5 1230246874#6 1230246874#7 1230246873 1230246872#0 1230246872#1 1230246872#2 95222430#0 95222430#1 95222430#2 95222430#3 95222430#4 95222430#5 -667068898 98357300#7 836693675#0 836693675#1 836693675#2 1230275273#0 1230275273#1 207897658 207897635#7 207897635#8 207897635#9 207897635#10 1230274178 385851418#0 385851418#1 1230274177 -696298234#0" />
    </vehicle>
    <vehicle id="16" depart="12.80" type="cng">
        <route edges="-64384021#9 -64384021#8 64384021#8 64384021#9 64384034#1 64384034#2 64384034#3 64384034#4 64384034#5 64384034#6 64384034#7 64384034#8 64386703#0 64386703#1 64386703#2 835994685#0 835994685#1 835994685#2 95222417#9 64384020#0 47572742#11 47572742#12 47572742#13 47572742#14 47572742#15 47572742#16 1080757453#0 1080757453#1 1080757453#2 1080757453#3 1080757453#4 1080757453#5 1080757453#6 1080757453#7 1080757453#8 1080757453#9 1080757453#10 1230246874#0 1230246874#1 1230246874#2 1230246874#3 1230246874#4 1230246874#5 1230246874#6 1230246874#7 1230246873 1230246872#0 1230246872#1 99029678#0 -99029678#0" />
    </vehicle>
    <vehicle id="17" depart="13.60" type="cng">
        <route edges="-828402721#4 -828402721#3 -828402725#7 -828402725#6 -828402725#5 -828402725#4 -828402725#3 -828402708 -828402748#2 -1254807337 -102309332#16 -102309332#15 -102309332#14 -102309332#13 -102309332#12 -102309332#11 -102309332#10 -102309332#9 -102309332#8 -102309332#7 -102309332#6 -102309332#5 -102309332#4 -102309332#3 -102309332#2 -102309332#1 -102309332#0 -102309333#8 -102309333#7 -102309333#6 -102309333#5 -102309333#4 -102309333#3 -102309333#2 -102309333#1 -102309333#0 1094447661#6 673262235 835791097#0 835791097#1 835791097#2 835791097#3 835791097#4 835791097#5 835791097#6 835791097#7 835791097#8 835791097#9 835791097#10 835791097#11 835791097#12 835791097#13 835791097#14 835791097#15 1219692247#0 1219692247#1 1219692247#2 1219692247#3 1219692247#4 1219692247#5 -1152278970#17 -1152278970#16 -1152278970#15 -1152278970#14 -1152278970#13 -1152278970#12 -1152278970#11 -1152278970#10 -1152278970#9 -1152278970#8 -1152278970#7 -1152278970#6 -1152278970#5 -1152278970#4 -1152278970#3" />
    </vehicle>
    <vehicle id="18" depart="14.40" type="cng">
        <route edges="833412153 -1152278959#1 -1152278959#0 99047739#0 99047739#1 99047739#2 99047739#3 99047739#4 99047739#5 833796924#0 833796924#1 833796924#2 833796924#3 1255916059#0 1255916062 1255916061#4" />
    </vehicle>
    <vehicle id="19" depart="15.20" type="cng">
        <route edges="32067447#14 32067447#15 32067447#16 32067447#17 32067447#18 32067447#19 32067447#20 32067447#21 32067447#22 32067447#23 32067447#24 32067447#25 32067447#26 32067447#27 32067447#28 32067447#29 32067447#30 32067447#31 32067447#32 -1151579614#10 -1151579614#9 -1151579614#8 -1151579614#7 -1151579614#6 -1151579614#5 -1151579614#4 -1151579614#3 -1151579614#2 -1151579614#1 -1151579614#0 -32067475#10 -32067475#9 -32067475#8 -32067475#7 -32067475#6 -32067475#5 -32067475#4 -32067475#3 -32067475#2 -32067475#1 -32067475#0 -535357189 836266311#0 836266311#1 836266311#2 -1058506906 489009457#4 489009457#5 489009457#6 -489009457#6" />
    </vehicle>
    <vehicle id="20" depart="16.00" type="cng">
        <route edges="99052499#12 99052499#13 676314763 836077319#1 676314767#1 676314767#2 676314767#3 676314767#4 676314767#5 676314767#6 676314767#7 676314767#8 -836304923 676314770#4 -836077322#0 676314773#3 676314773#4 676314773#5 676314773#6 -99052521#3 -99052521#2 -835647684#2 -835647684#1 -835647684#0 -1152343709#3 -1152343709#2 -1152343709#1 -1152343709#0 -835639866 1449305538#8 1080757453#5 1080757453#6 1080757453#7 1080757453#8 1080757453#9 -1088370828 755113388#8 755113388#9 -207901674#2 -207901674#1 -207901674#0 750619639#0 750619639#1 750619639#2 123059916#3 123059916#4 123059916#5 -123059914#1 -123059914#0 1152506081#0 1152506081#1 1152506080 1152506078#0 1152506078#1 -1203906300#13 -1203906300#12 -1203906300#11 -1203906300#10 -1203906300#9 -1203906300#8 -1203906300#7 -1203906300#6 -1203906300#5 -1203906300#4 -1203906300#3 -1203906300#2 -1203906300#1 -1203906300#0 -1203906301#1 -1203906301#0 -1139100126 1139100127 1203906302#0 1203906302#1 1203906302#2 1203906302#3 1203906302#4 1203906302#5 1203906302#6 1203906302#7 1203906302#8 1203906302#9 1203906302#10 1203906302#11 1203906302#12 1203906302#13 1203906302#14 1203906302#15 1203906302#16 1374069456 -1375776894#35 -1375776894#34 -1375776894#33 -1375776894#32 -1375776894#31 -1375776894#30 -1375776894#29 -1375776894#28 -1375776894#27 232406465#0 232406465#1 232406465#2 232406465#3 232406465#4 232406465#5 232406465#6 232406465#7 384842705#0 384842705#1 384842705#2 384842705#3 384842705#4 384842705#5 384842705#6 384842705#7 -384853618#2 -384853618#1 -828722162#2 -828722162#1 -828722162#0 -834075001#1 -834082664#5 -834082664#4 -834082664#3 -834082664#2 834082664#2" />
    </vehicle>
    <vehicle id="21" depart="16.80" type="cng">
        <route edges="-207897653#5 -207897653#4 -207897653#3 -207897653#2 -207897653#1 -207897653#0 -535357191 -535357192 -836266311#0 535357189 32067475#0 32067475#1 32067475#2 32067475#3 32067475#4 32067475#5 32067475#6 32067475#7 32067475#8 32067475#9 32067475#10 1151579614#0 1151579614#1 1151579614#2 1151579614#3 1151579614#4 1151579614#5 1151579614#6 1151579614#7 1151579614#8 1151579614#9 1151579614#10 -32067447#32 -32067447#31 -32067447#30 -32067447#29 -32067447#28 -32067447#27 -32067447#26 -32067447#25 -32067447#24 -32067447#23 -32067447#22 -32067447#21 -32067447#20 -32067447#19 -32067447#18 -32067447#17 -32067447#16 -32067447#15 -32067447#14 -32067447#13 -32067447#12 -32067447#11 -32067447#10 -32067447#9 -32067447#8 -32067447#7 -32067447#6 -32067447#5 -32067447#4 -32067447#3 -32067447#2 -32067447#1 -32067447#0 -832563003 -832563004#17 -832563004#16 -832563004#15 -832563004#14 -832563004#13 -832563004#12 -832563004#11 -832563004#10 -832563004#9 -832563004#8 -832563004#7 -832563004#6 -832563004#5 -832563004#4 -832563004#3 -832563004#2 -832563004#1 -832563004#0 99047739#17 99047739#18 99047739#19 99047739#20 99047739#21 99047739#22 99047739#23 99047739#24 99047739#25 99047739#26 1219692249#0 1219692249#1 1219692249#2 1219692249#3 565282632#0 565282632#1 565282632#2 565282632#3 696139686#0 696139686#1 696139685#0 833830084#0 -833830084#0" />
    </vehicle>
    <vehicle id="22" depart="17.60" type="cng">
        <route edges="64398263#2 64398263#3 64398263#4 64398263#5 64398263#6 -765965642#1 -765965642#0 755113388#5 755113388#6 755113388#7 755113388#8 755113388#9 755113388#10 755113388#11 755113388#12 755113388#13 755113388#14 755113388#15 755113388#16 755113388#17 755113388#18 1075642993 568057022#0 568057022#1 568057022#2 95222417#0 95222417#1 95222417#2 95222417#3 95222417#4 95222417#5 95222417#6 95222417#7 95222417#8 -835994685#2 -835994685#1 -835994685#0 -35460464#2 -35460464#1 -64384030#5 -64384030#4 -64384030#3 -64384030#2 -64384030#1 -64384030#0 64384030#0" />
    </vehicle>
    <vehicle id="23" depart="18.40" type="cng">
        <route edges="836059700#0 836059700#1 -1151579614#9 -1151579614#8 -1151579614#7 -1151579614#6 -1151579614#5 -99052499#49 -99052499#48 -99052499#47 -99052499#46 -99052499#45 -99052499#44 -99052499#43 -99052499#42 -99052499#41 -99052499#40 -99052499#39 -99052499#38 -99052499#37 -99052499#36 -99052499#35 -99052499#34 -99052499#33 -99052499#32 -99052499#31 -99052499#30 -99052499#29 -99052499#28 -99052499#27 -99052499#26 -99052499#25 -99052499#24 -99052499#23 -99052499#22 -99052499#21 -99052499#20 -99052499#19 -99052499#18 -99052499#17 -99052499#16 -99052499#15 -99052499#14 -99052499#13 -99052499#12 -99052499#11 -99052499#10 -99052499#9 -99052499#8 -99052499#7 -99052499#6 -99052499#5 -99052499#4 -99052499#3 -99052499#2 -836064633" />
    </vehicle>
    <vehicle id="24" depart="19.20" type="cng">
        <route edges="832834684#1 832572411#4 32067447#12 32067447#13 32067447#14 32067447#15 32067447#16 32067447#17 32067447#18 32067447#19 32067447#20 32067447#21 32067447#22 32067447#23 32067447#24 32067447#25 32067447#26 32067447#27 32067447#28 32067447#29 32067447#30 32067447#31 32067447#32 -1151579614#10 -1151579614#9 -1151579614#8 -1151579614#7 -1151579614#6 -1151579614#5 -1151579614#4 -1151579614#3 -1151579614#2 -1151579614#1 -1151579614#0 -32067475#10 -32067475#9 -32067475#8 -32067475#7 -32067475#6 -32067475#5 -32067475#4 -32067475#3 -32067475#2 -32067475#1 -32067475#0 -535357189 836266311#0 836266311#1 836266311#2 836266311#3 -535357190 -64398241#3 -64398241#2 -64398241#1 -64398241#0 1230246872#0 1230246872#1 1230246872#2 95222430#0 95222430#1 95222430#2 95222430#3 95222430#4 95222430#5 -667068898 98357300#7 98357300#8 98357300#9 98357300#10 1081040286#0 1081040286#1 1081040286#2 1081040286#3 1080757448#0 1080757448#1 1080757448#2 1080757448#3 -1152506082#7 -1152506082#6 -1152506082#5 -1152506082#4 -1152506082#3 -1152506082#2 -1152506082#1 -1152506082#0 -1229229406 1152506081#0 1152506081#1 1152506080 1152506078#0 1152506078#1 -1203906300#13 -1203906300#12 -1203906300#11 -1203906300#10 -1203906300#9 -1203906300#8 -1203906300#7 -1203906300#6 -1203906300#5 -1203906300#4 -1203906300#3 -1203906300#2 -1203906300#1 -1203906300#0 -1203906301#1 -1203906301#0 -1139100126 1139100127 1203906302#0 1203906302#1 1203906302#2 1203906302#3 1203906302#4 1203906302#5 1203906302#6 1203906302#7 1203906302#8 1203906302#9 1203906302#10 1203906302#11 1203906302#12 1203906302#13 1203906302#14 1203906302#15 1203906302#16 1374069456 -1375776894#35 -1375776894#34 -1375776894#33 -1375776894#32 -1375776894#31 -1375776894#30 -1375776894#29 -1375776894#28 -1375776894#27 -1375776894#26 -1375776894#25 -1375776894#24 -1375776894#23 -1375776894#22 -1375776894#21 -1375776894#20 -1375776894#19 -1375776894#18 -1375776894#17 -1375776894#16 -1375776894#15 -1375776894#14 -1375776894#13 -1375776894#12 -1375776894#11 -1375776894#10 -1375776894#9 -1375776894#8 -1375776894#7 -1375776894#6 -1375776894#5 -1375776894#4 -1375776894#3 -1375776894#2 -1375776894#1 -1375776894#0 1375776895#0 1375776895#1 1375776895#2 1149522245#0 1149522245#1 1149522245#2 1149522245#3 1149522245#4 1149522245#5 1149522245#6 1149522245#7 1149522245#8 1149522245#9 1149522245#10 1149522245#11 1149522245#12 1149522245#13 1149522245#14 -384853658 -384853657#10 -384853657#9 -384853660 384853656#3" />
    </vehicle>
    <vehicle id="25" depart="20.00" type="cng">